<?xml version="1.0" encoding="UTF-8"?>
<additional xmlns:xsi="http://www.w3.org/2001/XMLSchema-instance" xsi:noNamespaceSchemaLocation="http://sumo.dlr.de/xsd/additional_file.xsd">
    <!-- Shapes -->
    <poly id="1003658257" type="building.apartments" color="255,230,230" fill="1" layer="-1.00" shape="3478.032294,2385.836818 3494.151357,2388.224465 3509.435523,2395.587900 3517.862408,2399.634147 3561.822475,2420.776733 3570.427472,2404.409451 3525.788356,2383.667887 3498.336969,2370.909482 3505.661792,2343.788826 3488.663306,2340.180036 3481.616782,2370.435599 3478.032294,2385.836818"/>
    <poly id="1003666511" type="building.apartments" color="255,230,230" fill="1" layer="-1.00" shape="3737.328784,2577.233592 3745.844725,2564.292613 3741.080251,2548.599427 3708.797599,2534.382629 3703.365207,2544.680691 3725.117036,2555.452661 3723.836862,2557.858585 3725.495522,2558.769920 3723.803466,2562.488169 3725.684765,2563.891626 3723.157813,2567.227115 3737.328784,2577.233592"/>
    <poly id="1003666512" type="building.apartments" color="255,230,230" fill="1" layer="-1.00" shape="3708.797599,2534.382629 3702.786346,2531.265872 3700.326185,2536.059480 3651.468061,2512.547134 3642.128356,2530.791980 3653.738979,2536.332880 3670.025020,2544.097438 3680.923198,2550.385641 3678.886051,2555.361528 3687.012374,2559.790616 3693.602488,2547.742773 3699.958831,2550.640815 3703.365207,2544.680691 3708.797599,2534.382629"/>
    <poly id="1003688272" type="building.apartments" color="255,230,230" fill="1" layer="-1.00" shape="3946.486975,2430.801254 3947.333004,2426.846124 3948.089976,2423.328428 3950.694852,2411.153204 3952.420304,2403.078927 3972.524604,2407.380347 3966.557880,2435.448991 3946.486975,2430.801254"/>
    <poly id="1003688273" type="building.apartments" color="255,230,230" fill="1" layer="-1.00" shape="3970.042180,2574.900569 3976.365127,2561.102939 3989.834785,2531.703312 3972.880827,2524.230392 3971.634048,2523.683593 3952.765395,2567.044848 3970.042180,2574.900569"/>
    <poly id="1003688274" type="building.apartments" color="255,230,230" fill="1" layer="-1.00" shape="3940.197424,2589.245026 3909.450981,2575.684319 3953.366520,2481.671335 3934.041456,2473.232457 3884.893901,2584.050397 3931.982046,2606.651612 3940.197424,2589.245026"/>
    <poly id="1003717950" type="building.apartments" color="255,230,230" fill="1" layer="-1.00" shape="4034.551825,2548.982187 4043.746814,2529.060449 4062.236982,2537.317119 4061.813968,2538.228452 4052.975200,2557.475825 4034.551825,2548.982187"/>
    <poly id="1003717951" type="building.residential" color="255,230,230" fill="1" layer="-1.00" shape="3994.142849,2636.725907 4007.178362,2607.490045 4027.427377,2617.150262 4014.414129,2646.349705 3994.142849,2636.725907"/>
    <poly id="1003717952" type="building.residential" color="255,230,230" fill="1" layer="-1.00" shape="3998.651289,2679.832592 3983.945984,2711.037238 3963.685837,2701.358681 3978.313218,2670.318116 3998.651289,2679.832592"/>
    <poly id="1003717953" type="building.residential" color="255,230,230" fill="1" layer="-1.00" shape="3943.937759,2742.843499 3963.685837,2701.358681 3983.945984,2711.037238 3964.687712,2751.884155 3943.937759,2742.843499"/>
    <poly id="100409433" type="traffic_sign.DE:240" color="black" fill="0" layer="0.00" shape="1506.697696,2642.084611 1549.600227,2582.081908 1680.589872,2398.868641"/>
    <poly id="100410643" type="building.hotel" color="255,230,230" fill="1" layer="-1.00" shape="1952.799423,3615.824019 1937.348278,3628.657312 1938.205438,3631.245848 1913.080629,3639.011461 1907.503522,3620.800563 1901.815096,3597.594944 1899.199088,3580.058613 1897.384581,3558.912984 1897.306657,3543.254317 1897.306657,3527.668596 1898.364192,3512.666229 1921.095632,3514.525573 1924.746911,3531.843015 1940.420696,3538.770002 1948.435699,3534.704953 1964.387782,3542.415787 1965.901727,3557.272378 2003.394132,3575.665422 2007.535217,3629.331790 2041.075779,3644.698957 2041.554453,3656.365629 1952.799423,3615.824019"/>
    <poly id="100410643#1" type="tourism.hotel" color="207,245,201" fill="1" layer="-2.00" shape="1952.799423,3615.824019 1937.348278,3628.657312 1938.205438,3631.245848 1913.080629,3639.011461 1907.503522,3620.800563 1901.815096,3597.594944 1899.199088,3580.058613 1897.384581,3558.912984 1897.306657,3543.254317 1897.306657,3527.668596 1898.364192,3512.666229 1921.095632,3514.525573 1924.746911,3531.843015 1940.420696,3538.770002 1948.435699,3534.704953 1964.387782,3542.415787 1965.901727,3557.272378 2003.394132,3575.665422 2007.535217,3629.331790 2041.075779,3644.698957 2041.554453,3656.365629 1952.799423,3615.824019"/>
    <poly id="100410833" type="building.yes" color="255,230,230" fill="1" layer="-1.00" shape="1738.264500,3706.514278 1751.845478,3707.735641 1752.869618,3696.324106 1776.714253,3698.475161 1779.207809,3670.803158 1735.203214,3666.829189 1732.720790,3694.355344 1739.310904,3694.938681 1738.264500,3706.514278"/>
    <poly id="100411036" type="building.service" color="255,230,230" fill="1" layer="-1.00" shape="1615.701741,3869.631711 1612.395552,3894.898073 1619.653583,3895.773100 1618.584916,3904.632753 1614.354775,3904.122320 1595.486122,3901.861832 1599.749658,3867.699366 1615.701741,3869.631711"/>
    <poly id="100411037" type="building.service" color="255,230,230" fill="1" layer="-1.00" shape="1619.764902,3838.586643 1603.634708,3836.563158 1608.477106,3797.752444 1632.054574,3800.687395 1630.351386,3814.377772 1623.059959,3813.466294 1619.764902,3838.586643"/>
    <poly id="1004954155" type="building.apartments" color="255,230,230" fill="1" layer="-1.00" shape="3964.988275,4211.335888 3948.156768,4202.767585 3945.885850,4207.215809 3942.568529,4205.538610 3932.416192,4225.500955 3935.466346,4227.050546 3932.861470,4232.155081 3949.993539,4240.705186 3964.988275,4211.335888"/>
    <poly id="101047801" type="traffic_sign.DE:241" color="black" fill="0" layer="0.00" shape="637.949258,2899.324841 646.487463,2901.803778 762.905386,2928.543534 776.208065,2935.269499 791.458835,2942.997986 802.523993,2947.737157 812.431427,2950.653570 969.837187,2992.176127"/>
    <poly id="101047814" type="traffic_sign.none" color="black" fill="0" layer="0.00" shape="1664.248171,3601.678253 1702.686791,3608.240719 1788.848077,3621.201604 1793.779530,3621.948997 1805.857695,3623.917741 1819.928479,3626.141693"/>
    <poly id="101060325" type="traffic_sign.none" color="black" fill="0" layer="0.00" shape="1133.410047,3438.766763 1148.816665,3460.149050 1165.770623,3473.893534 1193.734079,3484.903721 1372.947327,3536.509616 1469.171895,3563.488456 1502.489819,3572.128996 1560.008600,3584.451807 1632.455324,3596.610575 1664.248171,3601.678253"/>
    <poly id="101060330" type="traffic_sign.DE:241" color="black" fill="0" layer="0.00" shape="1152.768507,3060.220359 997.644796,3025.751591"/>
    <poly id="101060332" type="traffic_sign.DE:241" color="black" fill="0" layer="0.00" shape="1002.965868,3003.513755 1157.265814,3038.820905"/>
    <poly id="101060334" type="traffic_sign.none" color="black" fill="0" layer="0.00" shape="1660.563496,3630.972411 1655.298084,3626.305755 1646.281205,3624.810968 1570.951306,3612.633928 1500.730971,3597.430883 1463.694976,3587.058558 1297.205546,3540.082484 1189.336959,3508.145473 1167.373624,3500.124782 1148.337991,3489.479150 1130.103858,3476.135673 1121.198299,3465.872877 1116.033075,3458.544920 1109.788051,3449.029524 1106.203564,3437.654812 1102.652472,3422.707299 1100.593061,3405.572378 1101.227582,3395.437272 1104.422452,3376.570697"/>
    <poly id="101082663" type="traffic_sign.DE:241" color="black" fill="0" layer="0.00" shape="1342.512579,2410.351244 1358.498058,2417.550663 1372.312806,2427.484048 1441.464474,2479.775776 1458.418433,2494.083611 1473.290716,2509.922504 1495.009149,2540.634371 1496.534226,2544.133891 1503.870181,2560.938898 1507.387877,2575.593185 1507.432404,2591.578053 1506.697696,2642.084611 1509.447287,2659.072092 1519.031895,2678.757201 1538.969216,2704.275006 1546.794976,2716.377764 1553.429618,2729.300760 1560.531801,2747.874185 1564.773074,2767.340785 1566.531922,2783.070852 1565.964193,2799.438904 1561.689524,2830.534649 1555.889779,2856.727347 1554.442625,2875.556250 1557.348064,2892.544223 1564.661755,2914.016198 1563.125546,2920.815061 1560.821232,2927.905570"/>
    <poly id="1011240218" type="building.residential" color="255,230,230" fill="1" layer="-1.00" shape="447.470477,3100.412841 447.125386,3101.615885 475.111106,3109.763774 475.845815,3107.612876 481.166887,3092.064454 465.771401,3087.671529 452.268347,3083.825443 447.470477,3100.412841"/>
    <poly id="1011240219" type="building.residential" color="255,230,230" fill="1" layer="-1.00" shape="493.100336,3128.575041 497.586512,3116.617486 499.746110,3117.437745 506.391883,3098.407769 481.901595,3089.895333 481.166887,3092.064454 475.845815,3107.612876 483.994402,3110.274157 479.140872,3123.562344 493.100336,3128.575041"/>
    <poly id="1011240220" type="building.residential" color="255,230,230" fill="1" layer="-1.00" shape="484.617791,3151.469432 493.100336,3128.575041 479.140872,3123.562344 475.189030,3122.140562 466.784409,3144.706830 484.617791,3151.469432"/>
    <poly id="1011240221" type="building.residential" color="255,230,230" fill="1" layer="-1.00" shape="466.784409,3144.706830 458.390919,3167.236706 476.079586,3174.473257 484.617791,3151.469432 466.784409,3144.706830"/>
    <poly id="1011240222" type="building.residential" color="255,230,230" fill="1" layer="-1.00" shape="467.953263,3196.565740 476.079586,3174.473257 458.390919,3167.236706 449.440832,3190.823876 452.490986,3191.717054 467.953263,3196.565740"/>
    <poly id="1011240223" type="building.residential" color="255,230,230" fill="1" layer="-1.00" shape="436.594563,3222.613803 458.691482,3228.957221 465.782533,3208.887976 463.622935,3207.994796 467.953263,3196.565740 452.490986,3191.717054 448.394429,3204.476759 442.483364,3202.708627 436.594563,3222.613803"/>
    <poly id="1011240224" type="building.residential" color="255,230,230" fill="1" layer="-1.00" shape="412.260122,3215.760001 436.594563,3222.613803 442.483364,3202.708627 443.162413,3200.448336 436.527771,3198.589064 437.418327,3195.307998 425.473745,3191.789967 424.872620,3194.998119 418.527409,3193.357587 416.813089,3199.409331 412.260122,3215.760001"/>
    <poly id="1011240229" type="building.apartments" color="255,230,230" fill="1" layer="-1.00" shape="423.035849,3099.556129 439.065855,3104.186023 440.590932,3098.425997 447.470477,3100.412841 452.268347,3083.825443 452.847208,3081.820375 427.889378,3074.310490 422.323404,3094.051297 424.460738,3094.671046 423.035849,3099.556129"/>
    <poly id="1012166716" type="building.apartments" color="255,230,230" fill="1" layer="-1.00" shape="3047.070018,3067.784915 3028.145704,3054.697326 3018.705811,3068.277067 3018.004499,3069.279599 3037.251638,3081.747464 3047.070018,3067.784915"/>
    <poly id="1012166717" type="building.apartments" color="255,230,230" fill="1" layer="-1.00" shape="3037.251638,3081.747464 3036.272027,3083.096328 3121.865583,3140.040456 3124.025182,3136.613589 3128.466829,3129.541124 3129.323989,3128.174025 3047.070018,3067.784915 3037.251638,3081.747464"/>
    <poly id="1012166718" type="building.apartments" color="255,230,230" fill="1" layer="-1.00" shape="2986.556742,3059.072005 2990.575376,3035.284715 3008.130460,3037.818377 3004.178618,3062.006687 2986.556742,3059.072005"/>
    <poly id="1012178964" type="building.residential" color="255,230,230" fill="1" layer="-1.00" shape="3492.136474,2877.087354 3482.351490,2887.604584 3470.551624,2900.290897 3453.619930,2885.435518 3474.915348,2862.560110 3492.136474,2877.087354"/>
    <poly id="1012178965" type="building.residential" color="255,230,230" fill="1" layer="-1.00" shape="3491.624404,2844.606150 3508.300064,2826.688685 3524.775348,2842.017867 3508.611758,2859.388545 3491.624404,2844.606150"/>
    <poly id="1012178966" type="building.residential" color="255,230,230" fill="1" layer="-1.00" shape="3474.915348,2862.560110 3491.624404,2844.606150 3508.611758,2859.388545 3492.136474,2877.087354 3474.915348,2862.560110"/>
    <poly id="1012250269" type="building.apartments" color="255,230,230" fill="1" layer="-1.00" shape="3593.804565,2738.687716 3605.526507,2748.020002 3607.507994,2745.577567 3609.055335,2746.889920 3611.248329,2748.821996 3633.545623,2721.408434 3641.504966,2711.675184 3625.975897,2698.916260 3621.289347,2704.639546 3615.678845,2700.101016 3612.884725,2703.837557 3607.619313,2699.645341 3600.227699,2708.540132 3611.125877,2717.125074 3603.812187,2726.220383 3598.134893,2721.444889 3594.850968,2725.473072 3600.773165,2730.011617 3593.804565,2738.687716"/>
    <poly id="1012250270" type="building.yes" color="255,230,230" fill="1" layer="-1.00" shape="3502.322207,2912.029400 3496.188503,2917.971568 3503.312951,2924.588159 3509.413259,2918.445483 3502.322207,2912.029400"/>
    <poly id="1012250271" type="building.apartments" color="255,230,230" fill="1" layer="-1.00" shape="3503.646909,2933.501427 3506.730459,2927.777978 3503.312951,2924.588159 3496.188503,2917.971568 3481.984136,2933.665475 3477.720600,2944.401510 3494.752482,2952.640378 3503.646909,2933.501427"/>
    <poly id="1012250272" type="building.apartments" color="255,230,230" fill="1" layer="-1.00" shape="3497.713580,3026.043235 3501.899193,3027.975378 3495.297947,3042.265958 3509.201752,3048.682145 3516.738081,3032.386498 3522.226132,3020.520226 3504.292562,3012.226604 3497.713580,3026.043235"/>
    <poly id="1012250273" type="building.apartments" color="255,230,230" fill="1" layer="-1.00" shape="3476.240050,2999.266699 3463.939247,2993.579659 3455.935375,3009.310168 3451.271089,3019.390105 3464.128490,3025.332352 3476.240050,2999.266699"/>
    <poly id="1012250274" type="building.apartments" color="255,230,230" fill="1" layer="-1.00" shape="3463.939247,2993.579659 3443.523252,2984.137723 3436.777291,2981.020792 3421.648972,3013.703051 3435.797679,3020.192126 3442.821939,3005.026655 3443.489856,3003.568438 3455.935375,3009.310168 3463.939247,2993.579659"/>
    <poly id="1012250275" type="building.apartments" color="255,230,230" fill="1" layer="-1.00" shape="3421.648972,3013.703051 3416.038470,3025.933869 3442.543641,3038.091794 3448.143011,3025.860957 3435.797679,3020.192126 3421.648972,3013.703051"/>
    <poly id="1012272103" type="building.apartments" color="255,230,230" fill="1" layer="-1.00" shape="3655.820653,2857.365305 3672.051035,2868.119466 3682.771102,2851.441410 3666.629776,2840.559680 3655.820653,2857.365305"/>
    <poly id="1012272104" type="building.apartments" color="255,230,230" fill="1" layer="-1.00" shape="3651.401269,2830.279466 3632.165261,2817.301627 3631.408289,2818.486400 3621.935000,2833.141155 3621.122368,2834.398841 3623.504605,2835.966391 3640.636674,2847.322026 3651.401269,2830.279466"/>
    <poly id="1012454412" type="building.yes" color="255,230,230" fill="1" layer="-1.00" shape="3835.278804,2860.062958 3822.232160,2887.713948 3805.322729,2875.957253 3817.044671,2851.550774 3835.278804,2860.062958"/>
    <poly id="1012454413" type="building.apartments" color="255,230,230" fill="1" layer="-1.00" shape="3518.897679,2946.570591 3510.626641,2943.672407 3512.752843,2939.279562 3507.387244,2935.871009 3503.646909,2933.501427 3494.752482,2952.640378 3512.352093,2960.933938 3518.897679,2946.570591"/>
    <poly id="1012454414" type="building.apartments" color="255,230,230" fill="1" layer="-1.00" shape="3530.174344,2969.391555 3547.696032,2977.721587 3549.777706,2973.128220 3556.267632,2958.874218 3552.783332,2957.361326 3557.993084,2946.242495 3545.436246,2940.920043 3540.671772,2952.111778 3538.489910,2951.091033 3530.174344,2969.391555"/>
    <poly id="1012454415" type="building.apartments" color="255,230,230" fill="1" layer="-1.00" shape="3549.777706,2973.128220 3574.434973,2985.322521 3583.507512,2964.725282 3585.065985,2960.915710 3577.974933,2957.689423 3586.502006,2938.714508 3571.941417,2931.897402 3564.382823,2949.031315 3562.234357,2953.898082 3565.061872,2955.009966 3563.648115,2957.871699 3558.082140,2955.265152 3556.267632,2958.874218 3549.777706,2973.128220"/>
    <poly id="1012454416" type="building.apartments" color="255,230,230" fill="1" layer="-1.00" shape="3574.434973,2985.322521 3626.588155,3009.656495 3638.009534,2985.942262 3611.493232,2974.349472 3610.001551,2977.028936 3583.507512,2964.725282 3574.434973,2985.322521"/>
    <poly id="1012454417" type="building.apartments" color="255,230,230" fill="1" layer="-1.00" shape="3737.540291,3022.270090 3741.514397,3013.958239 3729.803587,3008.781564 3737.484631,2993.051056 3766.171664,3006.193228 3755.095375,3029.871066 3737.540291,3022.270090"/>
    <poly id="1012454418" type="building.apartments" color="255,230,230" fill="1" layer="-1.00" shape="3709.409856,3035.120665 3717.859005,3038.912044 3725.963064,3042.812792 3728.768315,3036.597115 3747.926400,3045.619874 3737.818590,3067.055801 3701.918054,3050.942394 3709.409856,3035.120665"/>
    <poly id="1012454419" type="building.apartments" color="255,230,230" fill="1" layer="-1.00" shape="3755.095375,3029.871066 3754.293875,3031.566248 3747.926400,3045.619874 3728.768315,3036.597115 3720.820104,3032.860420 3726.408342,3020.410859 3736.315777,3025.077164 3736.972562,3023.564260 3737.540291,3022.270090 3755.095375,3029.871066"/>
    <poly id="1012454420" type="building.apartments" color="255,230,230" fill="1" layer="-1.00" shape="3673.776487,3038.310527 3660.039662,3032.131309 3668.778242,3013.101536 3682.782234,3019.736432 3681.657907,3021.741485 3673.776487,3038.310527"/>
    <poly id="1012454421" type="building.apartments" color="255,230,230" fill="1" layer="-1.00" shape="3660.039662,3032.131309 3650.878068,3028.030061 3653.327096,3022.197179 3636.528985,3014.195199 3653.460680,2979.289165 3672.340465,2987.600980 3669.223520,2994.709776 3663.156607,3008.581059 3669.568610,3011.369901 3668.778242,3013.101536 3660.039662,3032.131309"/>
    <poly id="1012454422" type="building.apartments" color="255,230,230" fill="1" layer="-1.00" shape="3653.460680,2979.289165 3668.867297,2946.643502 3685.142207,2959.129404 3672.340465,2987.600980 3653.460680,2979.289165"/>
    <poly id="1012454426" type="building.apartments" color="255,230,230" fill="1" layer="-1.00" shape="3666.629776,2840.559680 3651.401269,2830.279466 3640.636674,2847.322026 3655.820653,2857.365305 3666.629776,2840.559680"/>
    <poly id="1012454427" type="building.apartments" color="255,230,230" fill="1" layer="-1.00" shape="3672.051035,2868.119466 3687.624632,2878.436183 3698.834504,2862.286699 3682.771102,2851.441410 3672.051035,2868.119466"/>
    <poly id="1012454428" type="building.apartments" color="255,230,230" fill="1" layer="-1.00" shape="3687.624632,2878.436183 3705.268771,2890.119972 3715.788463,2873.733508 3698.834504,2862.286699 3687.624632,2878.436183"/>
    <poly id="1012468292" type="building.apartments" color="255,230,230" fill="1" layer="-1.00" shape="3673.553848,2752.595014 3656.878188,2769.819681 3643.486453,2758.646427 3659.828155,2740.583336 3673.553848,2752.595014"/>
    <poly id="1012468293" type="building.apartments" color="255,230,230" fill="1" layer="-1.00" shape="3691.476286,2737.448273 3719.372950,2750.662937 3718.938804,2751.647202 3711.190968,2769.400456 3682.247900,2755.201495 3684.051276,2751.720111 3691.476286,2737.448273"/>
    <poly id="1012468294" type="building.garages" color="255,230,230" fill="1" layer="-1.00" shape="3711.190968,2769.400456 3708.830994,2774.522295 3716.745810,2778.185961 3727.499273,2755.493130 3718.938804,2751.647202 3711.190968,2769.400456"/>
    <poly id="1012468295" type="building.garages" color="255,230,230" fill="1" layer="-1.00" shape="3744.408704,2762.893355 3735.859367,2781.503312 3720.931423,2814.002488 3697.186976,2797.743770 3705.847632,2780.865360 3712.270767,2783.854622 3709.276272,2792.366735 3712.638121,2793.934277 3711.970204,2795.501819 3717.714290,2799.602949 3736.605207,2759.229696 3744.408704,2762.893355"/>
    <poly id="1012468296" type="building.apartments" color="255,230,230" fill="1" layer="-1.00" shape="3772.539139,2775.342519 3744.408704,2762.893355 3735.859367,2781.503312 3763.678108,2794.845639 3772.539139,2775.342519"/>
    <poly id="1012468297" type="building.apartments" color="255,230,230" fill="1" layer="-1.00" shape="3796.650941,2795.574728 3798.031302,2796.249136 3794.903225,2802.282355 3803.630673,2806.255897 3804.153874,2804.834171 3814.606775,2809.154033 3822.666306,2792.129781 3802.751249,2782.560490 3796.650941,2795.574728"/>
    <poly id="1012468298" type="building.apartments" color="255,230,230" fill="1" layer="-1.00" shape="3814.606775,2809.154033 3813.482448,2811.614715 3835.879929,2822.222996 3838.674049,2816.153307 3844.807753,2802.847400 3822.666306,2792.129781 3814.606775,2809.154033"/>
    <poly id="1012468299" type="building.office" color="255,230,230" fill="1" layer="-1.00" shape="3817.044671,2851.550774 3829.813017,2827.016777 3834.254665,2828.967099 3847.212254,2834.617569 3835.278804,2860.062958 3817.044671,2851.550774"/>
    <poly id="1012468300" type="building.apartments" color="255,230,230" fill="1" layer="-1.00" shape="3748.906011,2838.390627 3777.515120,2857.602261 3765.648463,2875.209929 3736.939166,2856.289890 3748.906011,2838.390627"/>
    <poly id="1012468301" type="building.apartments" color="255,230,230" fill="1" layer="-1.00" shape="3736.939166,2856.289890 3716.890526,2843.056826 3728.746051,2824.865955 3748.906011,2838.390627 3736.939166,2856.289890"/>
    <poly id="1012468302" type="building.apartments" color="255,230,230" fill="1" layer="-1.00" shape="3716.890526,2843.056826 3702.007110,2832.867746 3713.996219,2814.932079 3728.746051,2824.865955 3716.890526,2843.056826"/>
    <poly id="1012468303" type="building.apartments" color="255,230,230" fill="1" layer="-1.00" shape="3702.007110,2832.867746 3682.225636,2819.324856 3694.214745,2801.607947 3713.996219,2814.932079 3702.007110,2832.867746"/>
    <poly id="1012468304" type="building.apartments" color="255,230,230" fill="1" layer="-1.00" shape="3682.225636,2819.324856 3662.856045,2806.055398 3674.822890,2788.557244 3694.214745,2801.607947 3682.225636,2819.324856"/>
    <poly id="1012468305" type="building.apartments" color="255,230,230" fill="1" layer="-1.00" shape="3662.856045,2806.055398 3646.581135,2794.900321 3655.898577,2782.760990 3659.416273,2778.185961 3674.822890,2788.557244 3662.856045,2806.055398"/>
    <poly id="1012468306" type="building.apartments" color="255,230,230" fill="1" layer="-1.00" shape="3659.828155,2740.583336 3673.086306,2725.928749 3692.578349,2735.315702 3691.476286,2737.448273 3684.051276,2751.720111 3677.383238,2748.639725 3673.553848,2752.595014 3659.828155,2740.583336"/>
    <poly id="1012607791" type="building.residential" color="255,230,230" fill="1" layer="-1.00" shape="3982.432039,2985.158472 3999.575241,2993.014601 3990.068556,3014.541526 3962.327739,3002.091993 3964.264698,2997.881394 3969.340867,2987.856167 3979.125850,2992.485998 3982.432039,2985.158472"/>
    <poly id="1012607792" type="building.residential" color="255,230,230" fill="1" layer="-1.00" shape="4010.195120,3023.564260 3990.068556,3014.541526 3999.575241,2993.014601 4015.716567,3000.342134 4013.601496,3004.844378 4017.542206,3006.703604 4010.195120,3023.564260"/>
    <poly id="1012850139" type="building.house" color="255,230,230" fill="1" layer="-1.00" shape="4140.694959,2972.289749 4140.093834,2973.984919 4157.370619,2982.023314 4164.094316,2972.727212 4167.812387,2965.618436 4147.730351,2956.176532 4140.694959,2972.289749"/>
    <poly id="1012850140" type="landuse.village_green" color="242,242,204" fill="1" layer="-3.00" shape="3935.533137,2813.273397 3983.344859,2834.726933 3991.805140,2815.879898 3944.004551,2794.408185 3935.533137,2813.273397"/>
    <poly id="10262314" type="traffic_sign.DE:237" color="black" fill="0" layer="0.00" shape="1026.832767,4319.753063 1029.292927,4323.946123 1033.267033,4332.186403 1035.014749,4341.392920 1035.382104,4349.487371 1035.148333,4362.431218 1063.980081,4417.069067 1114.196303,4500.074822 1173.106578,4583.373134 1233.430610,4655.058867 1247.712900,4672.032363 1282.377790,4710.993142 1312.589900,4736.736166 1328.497455,4747.328752 1385.882652,4787.876058 1394.777080,4794.384794 1411.207836,4804.740442 1424.132029,4813.345850"/>
    <poly id="1029108556" type="leisure.track" color="207,245,201" fill="1" layer="-2.00" shape="1586.903389,2856.089389 1731.974949,2661.441594 1749.385318,2674.364501 1606.106001,2870.288527 1586.903389,2856.089389"/>
    <poly id="1029108557" type="landuse.grass" color="194,194,130" fill="1" layer="-3.00" shape="1613.308372,2871.619128 1678.730837,2780.974723 1731.841366,2707.811051 1861.127822,2799.931040 1807.449564,2868.137694 1804.532993,2871.746720 1739.110529,2962.410374 1613.308372,2871.619128"/>
    <poly id="1029108558" type="landuse.grass" color="194,194,130" fill="1" layer="-3.00" shape="1731.841366,2707.811051 1729.915539,2706.407569 1751.656235,2676.041382 1782.001928,2698.551720 1787.356396,2691.315596 1754.906764,2667.274215 1737.318285,2654.223730 1760.650850,2620.540454 1811.791024,2657.960250 1817.579638,2650.049767 1766.439464,2612.630008 1776.268975,2599.743653 1779.430448,2602.441220 1803.976396,2635.121942 1808.740870,2631.768197 1813.505344,2626.209004 1816.722478,2620.977898 1819.037923,2615.291125 1780.398928,2601.548106 1777.037079,2598.905221 1801.360388,2567.500516 1955.159396,2680.105997 1861.127822,2799.931040 1731.841366,2707.811051"/>
    <poly id="1029108559" type="leisure.pitch" color="207,245,201" fill="1" layer="-2.00" shape="1803.976396,2635.121942 1779.430448,2602.441220 1780.398928,2601.548106 1819.037923,2615.291125 1816.722478,2620.977898 1813.505344,2626.209004 1808.740870,2631.768197 1803.976396,2635.121942"/>
    <poly id="1029108559#1" type="sport.athletics" color="79,230,125" fill="1" layer="-2.00" shape="1803.976396,2635.121942 1779.430448,2602.441220 1780.398928,2601.548106 1819.037923,2615.291125 1816.722478,2620.977898 1813.505344,2626.209004 1808.740870,2631.768197 1803.976396,2635.121942"/>
    <poly id="1029108560" type="leisure.track" color="207,245,201" fill="1" layer="-2.00" shape="1811.791024,2657.960250 1817.579638,2650.049767 1766.439464,2612.630008 1760.650850,2620.540454 1811.791024,2657.960250"/>
    <poly id="1029108561" type="leisure.track" color="207,245,201" fill="1" layer="-2.00" shape="1782.001928,2698.551720 1787.356396,2691.315596 1754.906764,2667.274215 1737.318285,2654.223730 1731.974949,2661.441594 1749.385318,2674.364501 1751.656235,2676.041382 1782.001928,2698.551720"/>
    <poly id="1029108562" type="leisure.pitch" color="207,245,201" fill="1" layer="-2.00" shape="1551.726430,2487.084616 1537.076785,2476.440323 1559.964072,2444.926737 1574.613717,2455.570988 1551.726430,2487.084616"/>
    <poly id="1029108562#1" type="sport.tennis" color="79,230,125" fill="1" layer="-2.00" shape="1551.726430,2487.084616 1537.076785,2476.440323 1559.964072,2444.926737 1574.613717,2455.570988 1551.726430,2487.084616"/>
    <poly id="1029108563" type="leisure.pitch" color="207,245,201" fill="1" layer="-2.00" shape="1523.206376,2466.433972 1508.757106,2455.953744 1531.677789,2424.385559 1546.115927,2434.883972 1523.206376,2466.433972"/>
    <poly id="1029108563#1" type="sport.tennis" color="79,230,125" fill="1" layer="-2.00" shape="1523.206376,2466.433972 1508.757106,2455.953744 1531.677789,2424.385559 1546.115927,2434.883972 1523.206376,2466.433972"/>
    <poly id="1029108564" type="leisure.pitch" color="207,245,201" fill="1" layer="-2.00" shape="1996.614775,2955.137559 2110.227447,2805.453898 1993.687072,2716.997484 1880.074400,2866.679501 1996.614775,2955.137559"/>
    <poly id="1029108564#1" type="sport.soccer" color="79,230,125" fill="1" layer="-2.00" shape="1996.614775,2955.137559 2110.227447,2805.453898 1993.687072,2716.997484 1880.074400,2866.679501 1996.614775,2955.137559"/>
    <poly id="103211383" type="building.office" color="255,230,230" fill="1" layer="-1.00" shape="3003.900319,4565.068945 3005.970862,4566.144588 3015.689053,4567.676013 3026.141953,4566.600369 3031.997359,4563.883914 3034.524311,4561.058072 3036.995604,4558.049919 3039.188598,4555.260541 3044.787968,4545.780312 3022.546334,4532.471547 3016.857908,4543.847805 3014.553594,4542.845089 3003.900319,4565.068945"/>
    <poly id="1032464892" type="building.apartments" color="255,230,230" fill="1" layer="-1.00" shape="585.206083,4679.963063 564.099907,4687.109816 527.754094,4685.851841 526.852406,4708.203712 546.288789,4706.763418 549.427998,4706.544639 549.773089,4709.552848 567.784583,4707.693228 573.116786,4705.815377 575.610343,4704.958493 576.333919,4707.437986 591.328655,4700.054205 585.206083,4679.963063"/>
    <poly id="1032464893" type="building.apartments" color="255,230,230" fill="1" layer="-1.00" shape="528.733705,4649.935832 528.978608,4630.027128 552.311173,4630.829310 565.458005,4635.478316 575.153933,4638.887589 572.048119,4648.149151 568.886645,4657.556576 547.680282,4650.519238 528.733705,4649.935832"/>
    <poly id="1032464894" type="building.apartments" color="255,230,230" fill="1" layer="-1.00" shape="530.793116,4608.550579 531.260658,4586.490685 560.971830,4588.131501 611.800309,4604.029207 622.141890,4574.166340 627.340510,4559.180255 639.418675,4562.935889 645.541247,4564.850170 625.615058,4630.391756 577.680885,4614.165834 576.857121,4616.244209 569.387583,4613.564199 570.211347,4611.175892 556.196224,4606.654519 542.670905,4606.107579 542.670905,4608.714661 530.793116,4608.550579"/>