<?xml version='1.0' encoding='UTF-8'?>
<additional xmlns:xsi="http://www.w3.org/2001/XMLSchema-instance" xsi:noNamespaceSchemaLocation="http://sumo.dlr.de/xsd/additional_file.xsd">
    
    <poly id="10262314" type="traffic_sign.DE:237" color="black" fill="0" layer="0.00" shape="1026.832767,4319.753063 1029.292927,4323.946123 1033.267033,4332.186403 1035.014749,4341.392920 1035.382104,4349.487371 1035.148333,4362.431218 1063.980081,4417.069067 1114.196303,4500.074822 1173.106578,4583.373134 1233.430610,4655.058867 1247.712900,4672.032363 1282.377790,4710.993142 1312.589900,4736.736166 1328.497455,4747.328752 1385.882652,4787.876058 1394.777080,4794.384794 1411.207836,4804.740442 1424.132029,4813.345850" />
    <poly id="1032464892" type="building.apartments" color="255,230,230" fill="1" layer="-1.00" shape="585.206083,4679.963063 564.099907,4687.109816 527.754094,4685.851841 526.852406,4708.203712 546.288789,4706.763418 549.427998,4706.544639 549.773089,4709.552848 567.784583,4707.693228 573.116786,4705.815377 575.610343,4704.958493 576.333919,4707.437986 591.328655,4700.054205 585.206083,4679.963063" />
    <poly id="1032464893" type="building.apartments" color="255,230,230" fill="1" layer="-1.00" shape="528.733705,4649.935832 528.978608,4630.027128 552.311173,4630.829310 565.458005,4635.478316 575.153933,4638.887589 572.048119,4648.149151 568.886645,4657.556576 547.680282,4650.519238 528.733705,4649.935832" />
    <poly id="1032464894" type="building.apartments" color="255,230,230" fill="1" layer="-1.00" shape="530.793116,4608.550579 531.260658,4586.490685 560.971830,4588.131501 611.800309,4604.029207 622.141890,4574.166340 627.340510,4559.180255 639.418675,4562.935889 645.541247,4564.850170 625.615058,4630.391756 577.680885,4614.165834 576.857121,4616.244209 569.387583,4613.564199 570.211347,4611.175892 556.196224,4606.654519 542.670905,4606.107579 542.670905,4608.714661 530.793116,4608.550579" />
    <poly id="1032464895" type="building.apartments" color="255,230,230" fill="1" layer="-1.00" shape="532.384984,4559.070868 533.041769,4541.131357 532.863658,4535.698464 537.383230,4537.558045 566.526672,4539.107695 605.221327,4550.903281 597.918769,4572.051514 592.976183,4570.264851 593.432593,4568.332338 589.258112,4566.964994 577.580698,4563.154664 573.795835,4561.914940 573.194710,4563.701601 562.741810,4560.893991 562.975581,4558.560393 537.372098,4557.211282 537.216250,4559.289642 532.384984,4559.070868" />
    <poly id="1032895824" type="building.apartments" color="255,230,230" fill="1" layer="-1.00" shape="915.212713,4870.192821 908.789579,4782.114827 935.795687,4780.291654 977.596156,4777.483968 1014.988373,4774.986222 1051.779465,4772.506708 1077.204836,4770.792928 1078.429351,4788.805877 1073.542425,4789.206975 1073.776196,4794.877052 930.296504,4803.591840 933.424582,4844.959864 947.795928,4841.477576 951.224569,4857.284622 952.103993,4861.168019 934.036839,4865.580143 915.212713,4870.192821" />
    <poly id="1032895825" type="building.yes" color="255,230,230" fill="1" layer="-1.00" shape="1079.776317,4808.623814 1078.429351,4788.805877 1077.204836,4770.792928 1102.440965,4769.079147 1103.409444,4778.523176 1114.597053,4777.793907 1116.244582,4799.507921 1112.359531,4799.726703 1113.984796,4816.755199 1112.515379,4821.294921 1110.344649,4824.212014 1107.283363,4826.600384 1103.476236,4827.730758 1099.212700,4808.113324 1087.568681,4810.647543 1087.212459,4807.876310 1079.776317,4808.623814" />
    <poly id="1032895826" type="building.apartments" color="255,230,230" fill="1" layer="-1.00" shape="977.752003,4855.898997 985.900590,4854.130503 1002.999264,4850.392965 1002.119840,4846.327254 1026.999746,4840.912388 1027.823510,4844.686385 1035.126069,4843.100212 1052.948319,4839.216824 1052.024367,4835.005265 1077.271628,4829.499246 1078.095392,4833.255007 1095.539156,4829.462783 1103.476236,4827.730758 1099.212700,4808.113324 1087.568681,4810.647543 1066.417978,4815.260190 1067.074763,4818.268439 1056.844501,4820.492721 1056.232244,4817.685021 1016.279679,4826.381602 1016.925332,4829.353392 1006.461300,4831.632372 1005.893570,4829.025218 965.462331,4837.831203 966.030061,4840.474823 956.501112,4842.553256 955.888855,4839.727316 947.795928,4841.477576 951.224569,4857.284622 976.839183,4851.705661 977.752003,4855.898997" />
    <poly id="1032914797" type="building.shed" color="255,230,230" fill="1" layer="-1.00" shape="638.138501,4559.836579 631.570651,4557.502982 632.951012,4553.619732 639.529994,4555.971559 638.138501,4559.836579" />
    <poly id="1039088217" type="amenity.parking" color="184,184,179" fill="1" layer="-1.00" shape="1125.996169,4670.355066 1129.680844,4667.583881 1150.163631,4652.214762 1164.857803,4673.053326 1162.241795,4679.890137 1179.963858,4702.460770 1183.615138,4707.182744 1173.017522,4712.087037 1163.043296,4720.054240 1125.996169,4670.355066" />
    <poly id="1040619210" type="leisure.park" color="207,245,201" fill="1" layer="-2.00" shape="1116.867971,4738.996889 1123.569404,4722.697821 1098.388935,4690.063322 1039.990731,4737.064336 1043.808989,4744.867478 1116.867971,4738.996889" />
    <poly id="1040625338" type="leisure.park" color="207,245,201" fill="1" layer="-2.00" shape="1044.744073,4750.027037 1044.710677,4752.433617 1112.359531,4747.201130 1112.337268,4744.940405 1044.744073,4750.027037" />
    <poly id="1040625339" type="leisure.park" color="207,245,201" fill="1" layer="-2.00" shape="969.035687,4754.730808 967.488346,4757.337937 1033.779103,4753.162884 1033.790235,4750.756304 969.035687,4754.730808" />
    <poly id="1040625340" type="leisure.park" color="207,245,201" fill="1" layer="-2.00" shape="872.710932,4761.859395 872.777723,4763.901344 955.020563,4757.629644 956.690356,4755.697086 872.710932,4761.859395" />
    <poly id="1040625341" type="amenity.parking" color="184,184,179" fill="1" layer="-1.00" shape="964.627435,4744.794552 951.113249,4745.651439 949.899867,4724.502750 1018.873423,4720.254787 1032.064783,4740.236640 971.518112,4744.320529 964.627435,4744.794552" />
    <poly id="1042331772" type="leisure.park" color="207,245,201" fill="1" layer="-2.00" shape="823.429793,4765.086405 823.507717,4767.055428 869.293423,4763.974271 868.970597,4762.023480 823.429793,4765.086405" />
    <poly id="1124076223" type="building.school" color="255,230,230" fill="1" layer="-1.00" shape="666.324596,4459.729506 606.245467,4384.289959 626.828440,4367.900456 678.547476,4431.106879 666.324596,4459.729506" />
    <poly id="1182834875" type="natural.tree_row" color="140,196,107" fill="0" layer="-4.00" shape="1111.435580,4746.271316 1045.823872,4751.248559 969.091347,4756.079951" />
    <poly id="121108624" type="building.school" color="255,230,230" fill="1" layer="-1.00" shape="846.973865,4475.809269 859.018634,4467.787615 865.319318,4461.698455 866.866658,4460.732212 868.614374,4460.713981 870.106056,4460.914522 871.386230,4461.497914 872.454897,4462.190693 873.022626,4462.938164 911.550302,4437.670020 893.638996,4409.995477 892.726176,4410.560635 882.818741,4395.283160 884.555326,4394.371617 887.115674,4392.657917 921.724904,4369.541228 915.535540,4359.113216 908.333169,4363.196911 861.545587,4278.314815 874.803738,4271.095503 879.623872,4279.755032 887.995098,4274.595775 934.137027,4357.563600 935.628708,4360.243525 938.400563,4358.402216 948.675352,4351.529216 959.128252,4368.574995 911.272003,4398.637639 918.017964,4408.646391 918.552298,4408.409390 920.589445,4411.399256 921.936411,4413.714580 921.535660,4414.115660 928.136906,4424.324972 934.704756,4420.022475 938.923765,4426.439759 936.630583,4427.934696 942.463725,4436.412084 938.244716,4439.329037 936.975674,4443.759162 929.617455,4448.517446 924.819585,4447.660590 920.890007,4450.522854 919.810208,4455.007677 912.162559,4459.930048 908.054870,4458.945573 903.947181,4461.789610 902.934173,4466.292671 895.498031,4471.105662 891.056384,4470.303497 886.803979,4473.220462 885.757576,4477.668836 878.722184,4482.609451 874.024502,4481.588512 858.217134,4492.399534 846.973865,4475.809269" />
    <poly id="121108634" type="amenity.college" color="237,199,199" fill="1" layer="-2.00" shape="891.635245,4731.102594 890.099036,4708.440722 942.474857,4704.867336 944.011066,4727.547429 891.635245,4731.102594" />
    <poly id="121108634#1" type="building.yes" color="255,230,230" fill="1" layer="-1.00" shape="891.635245,4731.102594 890.099036,4708.440722 942.474857,4704.867336 944.011066,4727.547429 891.635245,4731.102594" />
    <poly id="1241652266" type="building.apartments" color="255,230,230" fill="1" layer="-1.00" shape="591.328655,4700.054205 592.475246,4703.262959 605.588682,4698.540987 621.095487,4692.962136 618.601930,4652.032447 596.360296,4645.888454 599.788936,4675.022327 585.206083,4679.963063 591.328655,4700.054205" />
    <poly id="1241654159" type="building.residential" color="255,230,230" fill="1" layer="-1.00" shape="643.058822,4843.957110 658.665815,4843.355458 658.543363,4840.219577 660.079572,4840.164881 660.035045,4839.235056 669.730972,4838.852187 669.230034,4825.670560 659.355996,4826.053429 659.300336,4824.831896 642.335246,4825.634097 642.980899,4841.915141 643.058822,4843.957110" />
    <poly id="1241669972" type="building.yes" color="255,230,230" fill="1" layer="-1.00" shape="852.695687,4866.819914 861.111441,4867.585655 861.701434,4856.464186 853.185493,4856.099548 852.695687,4866.819914" />
    <poly id="1256859355" type="landuse.residential" color="235,235,227" fill="1" layer="-3.00" shape="268.502132,4338.348387 308.076211,4340.062076 381.246512,4338.293695 382.537818,4311.020568 396.808977,4286.700893 404.122667,4224.480049 408.876009,4190.370906 415.254616,4190.571440 427.399573,4129.864450 442.917510,4069.157917 349.587249,4062.959678 315.334241,4054.263922 285.355902,4121.059240 280.368789,4163.554039 268.502132,4338.348387" />
    <poly id="1289131994" type="building.yes" color="255,230,230" fill="1" layer="-1.00" shape="843.233531,4923.703727 844.758608,4912.181076 873.122814,4915.936875 871.597737,4927.459532 863.727449,4926.420304 843.233531,4923.703727" />
    <poly id="1289153950" type="landuse.residential" color="235,235,227" fill="1" layer="-3.00" shape="794.419934,5041.228416 851.972111,5046.716347 897.724421,5050.289885 916.247985,4963.176225 900.340429,4864.249213 893.204850,4829.827419 890.867141,4780.838606 818.709847,4785.505931 819.121729,4795.661018 808.279210,4949.866770 794.419934,5041.228416" />
    <poly id="1289161994" type="landuse.residential" color="235,235,227" fill="1" layer="-3.00" shape="1244.317656,5134.286724 1085.041728,5081.339624 1137.450945,4917.796543 1218.257763,4942.500999 1203.708306,4987.497943 1175.032405,4978.855885 1169.410771,4995.046077 1164.612900,4993.532803 1154.326980,5021.391674 1269.653972,5061.739804 1252.822465,5109.052938 1244.317656,5134.286724" />
    <poly id="138357007" type="landuse.commercial" color="209,209,204" fill="1" layer="-3.00" shape="463.333504,4993.587500 491.953745,4997.398034 520.195500,5000.278725 526.240149,4959.329243 579.250490,4956.065691 573.818099,4879.746361 591.640349,4878.105485 590.137536,4851.413951 582.378568,4839.289752 571.558313,4827.347889 550.730437,4810.665775 531.739331,4798.304624 512.959733,4788.842340 508.228655,4788.897036 505.245293,4790.665516 501.972500,4794.001927 498.554991,4818.086121 484.974013,4895.754034 475.433933,4895.006523 463.578407,4991.600189 463.333504,4993.587500" />
    <poly id="140254020" type="building.yes" color="255,230,230" fill="1" layer="-1.00" shape="1123.291105,4428.445162 1116.500617,4420.259477 1124.793919,4413.331731 1131.595539,4421.499179 1127.443322,4424.981285 1123.291105,4428.445162" />
    <poly id="140254020#1" type="historic.monument" color="128,255,128" fill="1" layer="-1.00" shape="1123.291105,4428.445162 1116.500617,4420.259477 1124.793919,4413.331731 1131.595539,4421.499179 1127.443322,4424.981285 1123.291105,4428.445162" />
    <poly id="140254042" type="amenity.parking" color="184,184,179" fill="1" layer="-1.00" shape="1218.202103,4409.248011 1223.756946,4404.817905 1107.995807,4259.190944 1102.452097,4263.620969 1150.152499,4323.617970 1196.917817,4382.813262 1218.202103,4409.248011" />
    <poly id="148368908" type="building.apartments" color="255,230,230" fill="1" layer="-1.00" shape="1157.789016,4979.913351 1161.996892,4981.244301 1164.601769,4973.714411 1143.773892,4967.296690 1146.178393,4960.514332 1143.506725,4959.639189 1128.790288,4954.552425 1127.721621,4957.688351 1123.981286,4968.974049 1157.789016,4979.913351" />
    <poly id="171511652" type="landuse.village_green" color="242,242,204" fill="1" layer="-3.00" shape="1094.258982,4221.125642 1088.748667,4214.362143 1113.483858,4194.071677 1118.994173,4200.835160 1094.258982,4221.125642" />
    <poly id="171511677" type="amenity.parking" color="184,184,179" fill="1" layer="-1.00" shape="1175.143724,4024.585394 1182.446283,4018.496570 1165.815151,3998.243058 1159.558996,4003.803198 1149.707221,3991.734964 1135.213423,4004.587086 1138.029806,4007.904943 1169.433034,4046.333838 1175.388627,4041.429951 1179.028775,4038.421991 1183.481554,4034.757752 1175.143724,4024.585394" />
    <poly id="177424909" type="building.yes" color="255,230,230" fill="1" layer="-1.00" shape="961.744260,4692.378727 963.503108,4719.324976 1003.333222,4716.717859 1002.620777,4705.833608 997.989887,4706.143545 997.622532,4700.564689 990.898835,4701.002246 990.208654,4690.519111 961.744260,4692.378727" />
    <poly id="186630632" type="building.apartments" color="255,230,230" fill="1" layer="-1.00" shape="893.138058,4962.848046 914.411213,4963.212689 911.283135,4945.089957 908.856370,4930.449591 887.772459,4934.023077 893.138058,4962.848046" />
    <poly id="186630636" type="building.yes" color="255,230,230" fill="1" layer="-1.00" shape="740.107154,5008.811413 738.170195,5014.335786 738.314910,5020.078950 742.199961,5025.530402 748.389324,5028.301710 754.890383,5027.627115 760.634468,5023.889497 763.473115,5018.219259 763.172553,5012.403167 760.634468,5007.462227 785.903993,5005.639002 801.154763,4886.656275 797.959894,4886.838595 797.503484,4876.847480 786.683229,4877.357975 786.070972,4867.275712 742.122037,4870.192821 742.645239,4877.576758 732.782332,4878.287804 740.953182,4994.499111 735.253624,4994.973148 735.498527,5000.260493 735.910409,5009.066664 740.107154,5008.811413" />
    <poly id="186630637" type="building.apartments" color="255,230,230" fill="1" layer="-1.00" shape="1112.125761,4882.152979 1107.917884,4858.360305 1090.685627,4861.186251 1094.904635,4884.997166 1112.125761,4882.152979" />
    <poly id="186630638" type="building.yes" color="255,230,230" fill="1" layer="-1.00" shape="1013.997629,4975.774647 1007.429779,4995.410722 1063.189712,5014.007605 1069.735298,4994.371485 1013.997629,4975.774647" />
    <poly id="186630639" type="building.apartments" color="255,230,230" fill="1" layer="-1.00" shape="1027.133329,4909.245720 1022.769605,4890.630846 1004.836035,4895.152379 1009.110704,4913.749031 1027.133329,4909.245720" />
    <poly id="186630647" type="building.apartments" color="255,230,230" fill="1" layer="-1.00" shape="824.320349,4793.327352 822.962251,4791.741189 827.437295,4787.183251 828.706337,4788.678255 832.736103,4787.274410 850.691936,4786.453981 854.176236,4786.125810 854.788494,4796.317361 853.664167,4796.390288 850.725332,4796.372057 851.248534,4809.444245 845.359733,4809.590099 845.059170,4806.308376 841.919961,4806.745939 839.882814,4809.772417 839.237161,4821.459008 821.103216,4820.529185 822.483577,4799.143286 824.320349,4793.327352" />
    <poly id="186631205" type="building.commercial" color="255,230,230" fill="1" layer="-1.00" shape="491.953745,4997.398034 492.321100,4994.608504 501.337978,4925.326380 504.944730,4897.577234 475.433933,4895.006523 463.578407,4991.600189 463.333504,4993.587500 491.953745,4997.398034" />
    <poly id="186631207" type="building.apartments" color="255,230,230" fill="1" layer="-1.00" shape="597.985560,5002.411896 604.542278,5002.539522 603.507007,4987.023906 601.603444,4957.761279 600.211950,4937.705958 598.174804,4908.954008 596.660858,4888.114833 596.237844,4881.733644 577.569566,4882.918722 584.883256,4987.953748 597.985560,5002.411896" />
    <poly id="190713251" type="traffic_sign.none" color="black" fill="0" layer="0.00" shape="525.861662,4223.787291 500.146860,4259.537324 491.363752,4277.786128 486.154000,4305.788368 476.792031,4373.716082 466.094228,4453.713277 468.264958,4570.483626" />
    <poly id="190713254" type="traffic_sign.none" color="black" fill="0" layer="0.00" shape="513.750102,4693.107988 514.685185,4668.003205 516.466297,4619.635242 518.035902,4574.111647 521.776237,4476.647897 535.435139,4383.032032 546.132942,4308.723504 549.461394,4287.521271 552.834375,4270.858505 558.032995,4251.661730 584.972312,4167.892860 590.939037,4146.508694 589.848106,4125.069894" />
    <poly id="191354207" type="building.school" color="255,230,230" fill="1" layer="-1.00" shape="559.201850,4509.627923 580.920282,4443.066385 592.953919,4447.004275 674.918460,4473.822086 670.610396,4486.948444 666.703082,4485.672269 649.181394,4539.454088 571.246619,4513.529383 559.201850,4509.627923" />
    <poly id="196550867" type="building.residential" color="255,230,230" fill="1" layer="-1.00" shape="642.335246,4825.634097 641.500349,4825.707024 641.199787,4819.252957 642.101475,4819.143566 641.600537,4810.975716 652.398527,4798.249929 666.870061,4797.502426 668.150235,4820.164548 661.203899,4820.328635 661.125976,4818.906553 658.966377,4819.143566 659.300336,4824.831896 642.335246,4825.634097" />
    <poly id="216729104" type="traffic_sign.none" color="black" fill="0" layer="0.00" shape="468.264958,4570.483626 489.526981,4589.717624 513.750102,4693.107988 513.894817,4713.709647 514.284435,4726.945785" />
    <poly id="216729107" type="traffic_sign.none" color="black" fill="0" layer="0.00" shape="442.850718,4818.979480 447.481609,4873.365179" />
    <poly id="216880171" type="traffic_sign.none" color="black" fill="0" layer="0.00" shape="492.076197,4808.951986 447.481609,4873.365179 444.754281,4883.046346 412.015219,4921.278864" />
    <poly id="216880173" type="traffic_sign.none" color="black" fill="0" layer="0.00" shape="427.588816,4973.878501 488.280202,4823.555668 492.076197,4808.951986" />
    <poly id="216880175" type="traffic_sign.none" color="black" fill="0" layer="0.00" shape="589.848106,4125.069894 602.861354,4105.417710 690.970731,3972.447704 695.746337,3961.254552 703.160215,3943.881498" />
    <poly id="216880176" type="man_made.pier" color="255,230,230" fill="1" layer="-1.00" shape="464.680470,4583.974767 464.847449,4563.227589 450.977041,4560.255898 450.487235,4589.207148 464.680470,4583.974767" />
    <poly id="217639195" type="amenity.parking" color="184,184,179" fill="1" layer="-1.00" shape="571.725293,4849.299052 536.793236,4851.650965 535.479666,4832.179328 544.685788,4831.541213 545.253518,4839.891403 570.968320,4838.159376 571.725293,4849.299052" />
    <poly id="219869007" type="traffic_sign.none" color="black" fill="0" layer="0.00" shape="444.754281,4883.046346 427.588816,4973.878501 424.705641,4990.980294" />
    <poly id="219869008" type="traffic_sign.none" color="black" fill="0" layer="0.00" shape="492.076197,4808.951986 501.337978,4787.019165 511.256545,4779.051896" />
    <poly id="222512633" type="building.yes" color="255,230,230" fill="1" layer="-1.00" shape="863.727449,4926.420304 843.233531,4923.703727 840.450543,4944.725315 839.214897,4953.020926 840.929217,4953.239712 859.152218,4955.682816 859.719947,4950.231412 862.001997,4950.322573 864.673664,4932.181638 862.925948,4931.944621 863.727449,4926.420304" />
    <poly id="222512634" type="building.yes" color="255,230,230" fill="1" layer="-1.00" shape="745.405962,4793.145035 754.511896,4792.561618 756.159425,4790.392039 759.810704,4790.173258 761.157670,4792.124056 775.484488,4790.738443 776.931642,4813.765182 768.838715,4814.293904 769.239465,4821.221994 757.517523,4822.042426 757.038849,4813.309386 746.764060,4814.202745 745.405962,4793.145035" />
    <poly id="222512635" type="building.yes" color="255,230,230" fill="1" layer="-1.00" shape="802.501729,4834.567700 804.583403,4794.640039 799.284596,4789.042890 775.484488,4790.738443 776.931642,4813.765182 787.083979,4813.364082 786.872472,4817.502703 785.714750,4817.575630 784.557027,4818.013194 783.777791,4819.362348 783.321381,4821.185530 783.544020,4822.644076 784.000429,4823.646827 784.935513,4824.394332 785.258340,4835.752771 802.501729,4834.567700" />
    <poly id="222512636" type="building.yes" color="255,230,230" fill="1" layer="-1.00" shape="861.912941,4832.890370 861.122573,4824.357868 879.801983,4822.735236 878.766712,4807.183502 889.843001,4806.527158 891.468266,4830.392607 870.707181,4832.398110 861.912941,4832.890370" />
    <poly id="227890839" type="landuse.village_green" color="242,242,204" fill="1" layer="-3.00" shape="1163.121219,4258.224725 1210.175968,4221.107412 1216.398728,4216.203418 1236.202465,4241.142718 1182.757977,4283.291769 1163.121219,4258.224725" />
    <poly id="228762428" type="building.service" color="255,230,230" fill="1" layer="-1.00" shape="836.109083,4519.436270 836.398514,4519.290421 836.932847,4519.016954 837.277938,4519.509195 855.155848,4507.604269 857.348842,4506.109318 857.092807,4505.580616 857.705064,4505.106607 867.757214,4520.931224 866.799867,4520.785375 847.497067,4534.422282 847.619518,4534.841599 846.795754,4535.297378 837.066431,4520.858300 836.543229,4520.074360 836.109083,4519.436270" />
    <poly id="228762429" type="landuse.railway" color="194,194,130" fill="1" layer="-3.00" shape="672.814522,3875.611045 680.206136,3865.311280 708.948829,3900.166466 755.246605,3957.535658 794.631441,4007.212203 821.526230,4041.794552 845.526712,4070.707478 867.957589,4100.914851 888.507167,4132.398456 875.638634,4142.352187 858.584488,4112.108198 840.962613,4087.880274 812.119733,4049.505871 781.718380,4011.459790 742.333544,3962.093126 709.026752,3919.654080 672.814522,3875.611045" />
    <poly id="231423678" type="waterway.river" color="181,209,209" fill="0" layer="-4.00" shape="1010.769364,3317.874968 894.930302,3518.882274 809.158634,3644.006249 559.079398,3976.075456 479.697469,4120.402951 453.125507,4238.353450 435.971173,4328.594952 429.258608,4511.159337 422.913397,4708.112554 408.375072,4790.683747 361.999372,4912.819197 290.187168,5034.792409 263.904637,5071.421197 237.599841,5098.715132 123.864717,5195.949385 92.194322,5232.743001 5.743605,5416.549505 -45.196194,5529.486561 -67.103869,5569.199064" />
    <poly id="23214698" type="traffic_sign.none" color="black" fill="0" layer="0.00" shape="525.861662,4223.787291 555.138688,4184.373108 589.848106,4125.069894" />
    <poly id="26819169" type="traffic_sign.DE:237" color="black" fill="0" layer="0.00" shape="676.855420,4788.915267 649.615540,4791.686494 646.042185,4792.051129 642.212794,4792.433996 635.299854,4793.309120 626.984288,4793.947232" />
    <poly id="27014454" type="landuse.residential" color="235,235,227" fill="1" layer="-3.00" shape="378.908802,5426.668922 597.061609,5504.634438 616.486860,5495.882425 629.689351,5483.848422 635.299854,5478.451360 638.951133,5473.291335 642.379773,5467.383748 624.501863,5165.938462 613.815192,5035.995741 600.801943,4877.740846 573.818099,4879.746361 579.250490,4956.065691 526.240149,4959.329243 520.195500,5000.278725 516.755728,5022.357985 459.659961,5014.044070 443.719010,5029.814990 429.236344,5044.145588 425.429218,5047.937913 416.690638,5086.061820 405.102279,5139.738253 402.096652,5184.189320 383.940443,5339.624122 378.908802,5426.668922" />
    <poly id="27262794" type="landuse.residential" color="235,235,227" fill="1" layer="-3.00" shape="906.707904,5050.563370 996.999143,5053.243525 1072.818848,5077.693142 1099.001193,5001.317962 950.222693,4951.671749 1128.077844,4907.568374 1127.988788,4852.216154 1110.122010,4856.518882 1090.685627,4861.186251 999.258929,4882.645242 975.982023,4888.187761 952.337763,4893.803211 915.246109,4901.661202 920.244354,4926.219751 924.730530,4951.307107 913.064247,5016.286638 906.707904,5050.563370" />
    <poly id="27263250" type="landuse.commercial" color="209,209,204" fill="1" layer="-3.00" shape="759.588065,5007.316369 785.903993,5005.675467 793.284475,4951.215946 801.477590,4886.510419 801.243819,4876.683393 786.839077,4877.285047 786.182292,4867.184553 750.537791,4869.554704 759.588065,5007.316369" />
    <poly id="27263251" type="landuse.commercial" color="209,209,204" fill="1" layer="-3.00" shape="656.918099,5013.788818 694.544087,5011.436857 685.493812,4874.276776 647.711977,4876.883944 656.918099,5013.788818" />
    <poly id="27263252" type="landuse.retail" color="194,194,130" fill="1" layer="-3.00" shape="657.597148,5021.209351 781.540269,5038.730588 785.903993,5005.675467 759.588065,5007.316369 750.482131,4869.591168 685.493812,4874.276776 694.544087,5011.436857 656.918099,5013.788818 657.597148,5021.209351" />
    <poly id="27510539" type="landuse.commercial" color="209,209,204" fill="1" layer="-3.00" shape="1109.776919,4242.291240 1119.650958,4255.982367 1238.918661,4406.148760 1344.293691,4538.815996 1357.874668,4555.479316 1402.836611,4611.321743 1481.394775,4712.360510 1488.986765,4722.387884 1538.891292,4630.555839 1554.576209,4575.132597 1560.119919,4552.452934 1568.290770,4505.015451 1589.341286,4331.858250 1608.710877,4131.906239 1557.214481,4125.817334 1384.324179,4108.425694 1338.493945,4102.646720 1313.291212,4100.331485 1281.286859,4107.477724 1255.193570,4123.064566 1222.476772,4151.941324 1109.776919,4242.291240" />
    <poly id="27510542" type="amenity.construction" color="237,199,199" fill="1" layer="-1.00" shape="1028.914441,3968.491817 900.540804,3922.479697 888.774334,3929.716926 884.110048,3923.591714 817.652312,3978.007827 821.771133,3983.312734 924.018085,4115.061494 945.168788,4098.708998 916.860242,4059.149587 1028.914441,3968.491817" />
    <poly id="29173366" type="building.kindergarten" color="255,230,230" fill="1" layer="-1.00" shape="1033.177978,4940.349611 1037.341327,4957.560726 1044.833128,4955.755745 1048.517804,4970.943122 1061.542184,4967.788959 1063.378956,4975.337075 1080.065747,4971.289533 1070.392083,4931.342962 1033.177978,4940.349611" />
    <poly id="29178376" type="building.school" color="255,230,230" fill="1" layer="-1.00" shape="653.545118,4646.052537 668.484194,4636.098184 666.257804,4632.615986 732.403846,4588.696671 689.979988,4524.705072 701.312312,4517.084454 696.069164,4509.026296 715.282908,4496.191600 759.265239,4562.516571 767.224582,4557.284207 762.693879,4550.301651 817.084582,4513.748157 825.678447,4526.765192 826.658058,4528.241916 764.374803,4570.082538 775.695995,4587.456943 764.463859,4594.731233 772.089244,4606.891527 752.641729,4619.781093 744.693517,4607.766631 678.636531,4651.777207 682.744221,4657.939436 667.849673,4667.766196 653.545118,4646.052537" />
    <poly id="29178395" type="building.school" color="255,230,230" fill="1" layer="-1.00" shape="706.021126,4374.135391 829.986511,4293.792605 869.337951,4354.081523 866.744207,4355.758754 864.272914,4357.363062 808.301474,4393.587691 805.796786,4395.210237 778.868601,4412.638957 745.617469,4433.841520 706.021126,4374.135391" />
    <poly id="29178422" type="amenity.school" color="237,199,199" fill="1" layer="-2.00" shape="754.300389,4445.655183 786.727757,4424.015046 813.244060,4406.312838 815.726484,4404.653828 846.172365,4384.326421 869.883417,4419.311469 872.866779,4417.196683 877.007864,4423.358733 870.540202,4427.807079 880.180470,4442.519456 831.823283,4473.603314 835.597013,4479.601327 836.209271,4479.218475 836.598889,4480.202952 814.501970,4494.951886 814.568762,4495.243583 814.546498,4495.535281 814.435178,4495.826978 814.257067,4496.045751 814.012164,4496.228062 813.733865,4496.319217 813.433303,4496.337449 813.143872,4496.264524 812.898969,4496.100444 812.520483,4496.355680 808.468454,4498.980957 808.524113,4499.290885 808.479586,4499.600814 808.334870,4499.874280 808.123363,4500.093054 807.845064,4500.238902 807.533370,4500.311827 807.221675,4500.257133 806.943377,4500.129516 802.023055,4503.046492 802.145506,4503.319958 802.190034,4503.593425 802.134375,4503.885123 802.011923,4504.140358 801.822680,4504.359131 801.577777,4504.504980 801.299478,4504.577905 801.010048,4504.577905 800.731749,4504.486749 800.497978,4504.322669 794.731628,4508.041816 794.085975,4507.276109 794.620309,4506.838562 754.300389,4445.655183" />
    <poly id="29178422#1" type="building.school" color="255,230,230" fill="1" layer="-1.00" shape="754.300389,4445.655183 786.727757,4424.015046 813.244060,4406.312838 815.726484,4404.653828 846.172365,4384.326421 869.883417,4419.311469 872.866779,4417.196683 877.007864,4423.358733 870.540202,4427.807079 880.180470,4442.519456 831.823283,4473.603314 835.597013,4479.601327 836.209271,4479.218475 836.598889,4480.202952 814.501970,4494.951886 814.568762,4495.243583 814.546498,4495.535281 814.435178,4495.826978 814.257067,4496.045751 814.012164,4496.228062 813.733865,4496.319217 813.433303,4496.337449 813.143872,4496.264524 812.898969,4496.100444 812.520483,4496.355680 808.468454,4498.980957 808.524113,4499.290885 808.479586,4499.600814 808.334870,4499.874280 808.123363,4500.093054 807.845064,4500.238902 807.533370,4500.311827 807.221675,4500.257133 806.943377,4500.129516 802.023055,4503.046492 802.145506,4503.319958 802.190034,4503.593425 802.134375,4503.885123 802.011923,4504.140358 801.822680,4504.359131 801.577777,4504.504980 801.299478,4504.577905 801.010048,4504.577905 800.731749,4504.486749 800.497978,4504.322669 794.731628,4508.041816 794.085975,4507.276109 794.620309,4506.838562 754.300389,4445.655183" />