<?xml version="1.0" encoding="UTF-8"?>

<!-- generated on 2026-04-21 09:45:22.794740 by Eclipse SUMO cutRoutes.py v1_26_0+1301-14f1cb55af0
<configuration>
    <routes-output value="bike_cropped.rou.xml"/>
    <orig-net value="hats.net.xml"/>
    <network value="hats_cropped.net.xml"/>
    <routeFiles value="routes/bike.rou.xml"/>
</configuration>
-->

<routes xmlns:xsi="http://www.w3.org/2001/XMLSchema-instance" xsi:noNamespaceSchemaLocation="http://sumo.dlr.de/xsd/routes_file.xsd">
    <vType id="bike" length="1.9" width="0.6" minGap="0.3" color="1,1,0" vClass="bicycle" laneChangeModel="SL2015" latAlignment="arbitrary" lcCooperativeSpeed="0.5" minGapLat="0.3" lcTurnAlignmentDistance="5.0"/>
    <vehicle id="b0_14" depart="73.99" type="bike" bikeFactor="0.6512551474896883">
        <route edges="E88 -26819169#2 -26819169#1 -66009364#3 -66009364#2 -66009364#1 -66009364#0 -5061969#8 -5061969#7 -5061969#6 -5061969#5 -5061969#4 -5061969#3 -5061969#2"/>
    </vehicle>
    <vehicle id="b0_33" depart="255.45" type="bike" bikeFactor="0.6483006938882335">
        <route edges="66009393#7 1059689204 E109 66009384#1 66009384#2 1059633432#1 1059633432#3 1059633432#4 10262314#1"/>
    </vehicle>
    <vehicle id="b0_37" depart="267.05" type="bike" bikeFactor="0.6786014416352248">
        <route edges="66009393#7 1059689204 E109 66009384#1 66009384#2 1059633432#1 1059633432#3 1059633432#4 10262314#1"/>
    </vehicle>
    <vehicle id="b0_65" depart="531.78" type="bike" bikeFactor="0.6690675878571377">
        <route edges="E88 -26819169#2 -26819169#1 -66009364#3 -66009364#2 -66009364#1 -66009364#0 -5061969#8 -5061969#7 -5061969#6 -5061969#5 -5061969#4 -5061969#3 -5061969#2"/>
    </vehicle>
    <vehicle id="b0_69" depart="563.56" type="bike" bikeFactor="0.5397317086027568">
        <route edges="66009364#1 66009364#2 66009364#3 -66009364#3 -66009364#2 -66009364#1 -66009364#0 -5061969#8 -5061969#7 -5061969#6 -5061969#5 -5061969#4 -5061969#3 -5061969#2"/>
    </vehicle>
    <vehicle id="b0_12" depart="591.07" type="bike" bikeFactor="0.6939665907753038" departLane="best" departSpeed="max">
        <route edges="-75651074#0 -23653817#1 -23653817#0 -23638431#0"/>
    </vehicle>
    <vehicle id="b0_72" depart="596.40" type="bike" bikeFactor="0.6206743783011522">
        <route edges="E88 -26819169#2 -26819169#1 -66009364#3 -66009364#2 -66009364#1 -66009364#0 -5061969#8 -5061969#7 -5061969#6 -5061969#5 -5061969#4 -5061969#3 -5061969#2"/>
    </vehicle>
    <vehicle id="b0_46" depart="638.73" type="bike" bikeFactor="0.6088210717544011" departLane="best" departSpeed="max">
        <route edges="-26526438#7 -26526438#6 111865013#0 111865013#1 111865013#2 1059657620#1 1059633431#0 10262314#0 10262314#0.14 10262314#1"/>
    </vehicle>
    <vehicle id="b0_81" depart="649.25" type="bike" bikeFactor="0.22899096997436189">
        <route edges="66009364#1 66009364#2 66009364#3 -66009364#3 -66009364#2 -66009364#1 -66009364#0 -5061969#8 -5061969#7 -5061969#6 -5061969#5 -5061969#4 -5061969#3 -5061969#2"/>
    </vehicle>
    <vehicle id="b0_84" depart="663.81" type="bike" bikeFactor="0.6984387987519897">
        <route edges="66009364#2 66009364#3 -66009364#3 -66009364#2 -66009364#1 -66009364#0 -5061969#8 -5061969#7 -75651073 23652947 -6138338#2 -64963746#2 -64963746#1"/>
    </vehicle>
    <vehicle id="b0_24" depart="725.54" type="bike" bikeFactor="0.5894326744838122" departLane="best" departSpeed="max">
        <route edges="5061969#2 5061969#3 5061969#4 5061969#5 5061969#6 5061969#7 5061969#8 66009364#0 66009364#1 66009364#2 66009364#3 26819169#0 26819169#2 -E87 10262883#3 10262883#4 10262883#5 10262883#6 10262883#7"/>
    </vehicle>
    <vehicle id="b0_30" depart="727.90" type="bike" bikeFactor="0.7901863591610373" departLane="best" departSpeed="max">
        <route edges="-75651074#0 -23653817#1 -23653817#0 -23638431#0"/>
    </vehicle>
    <vehicle id="b0_16" depart="728.01" type="bike" bikeFactor="0.6964346744591592" departLane="best" departSpeed="max">
        <route edges="66009393#4 66009393#5 66009393#6 66009393#7 1059689204 E109 66009384#1 66009384#2 1059633432#1"/>
    </vehicle>
    <vehicle id="b0_92" depart="764.17" type="bike" bikeFactor="0.6281223858014443" departLane="best" departSpeed="max">
        <route edges="23638431#0 23653817#0 23653817#1 75651074#0"/>
    </vehicle>
    <vehicle id="b0_106" depart="819.61" type="bike" bikeFactor="0.5763986338346152">
        <route edges="66009364#2 66009364#3 -66009364#3 -66009364#2 -66009364#1 -66009364#0 -5061969#8 -5061969#7 -75651073 23652947 -6138338#2 -64963746#2 -64963746#1"/>
    </vehicle>
    <vehicle id="b0_107" depart="836.48" type="bike" bikeFactor="0.4613069241609407">
        <route edges="5061969#6 -75651073 -23638431#1 23653817#0 23653817#1 75651074#0"/>
    </vehicle>
    <vehicle id="b0_109" depart="858.63" type="bike" bikeFactor="0.5577415877460974">
        <route edges="5061969#6 -75651073 -23638431#1 23653817#0 23653817#1 75651074#0"/>
    </vehicle>
    <vehicle id="b0_47" depart="888.56" type="bike" bikeFactor="0.5644575488511937" departLane="best" departSpeed="max">
        <route edges="-75651074#0 -23653817#1 -23653817#0 -23638431#0"/>
    </vehicle>
    <vehicle id="b900_6" depart="938.47" type="bike" bikeFactor="0.5803750043359271">
        <route edges="66009393#7 1059689204 E109 66009384#1 66009384#2 1059633432#1 1059633432#3 1059633432#4 10262314#1"/>
    </vehicle>
    <vehicle id="b900_8" depart="975.72" type="bike" bikeFactor="0.49458580475818287" departLane="best" departSpeed="max">
        <route edges="66009393#4 66009393#5 66009393#6 66009393#7 1059689204 E109 66009384#1 66009384#2 1059633432#1 1059633432#3 1059633432#4 10262314#1"/>
    </vehicle>
    <vehicle id="b0_74" depart="1004.71" type="bike" bikeFactor="0.573027106075949" departLane="best" departSpeed="max">
        <route edges="-75651074#0 -23653817#1 -23653817#0 -23638431#0"/>
    </vehicle>
    <vehicle id="b900_21" depart="1009.69" type="bike" bikeFactor="0.6124015409064837">
        <route edges="5061969#6 -75651073 -23638431#1 23653817#0 23653817#1 75651074#0"/>
    </vehicle>
    <vehicle id="b0_98" depart="1019.71" type="bike" bikeFactor="0.7408093088882985" departLane="best" departSpeed="max">
        <route edges="-26526438#7 -26526438#6 111865013#0 111865013#1 111865013#2 1059657620#1 1059633431#0 10262314#0 10262314#0.14 10262314#1"/>
    </vehicle>
    <vehicle id="b900_17" depart="1021.54" type="bike" bikeFactor="0.629580106054691" departLane="best" departSpeed="max">
        <route edges="23638431#0 23653817#0 23653817#1 75651074#0"/>
    </vehicle>
    <vehicle id="b900_23" depart="1025.10" type="bike" bikeFactor="0.4826801314511588">
        <route edges="-10262883#7 -10262883#6 -10262883#5 -10262883#4 -10262883#3 E87 -26819169#2 -26819169#1 -66009364#3 -66009364#2 -66009364#1 -66009364#0 66009370#0 66009370#1 -26827958#5 -26827958#4 -26827958#3 -26827958#2 -26827958#1 E109 66009384#1 66009384#2 66009384#3 66009384#4 26526438#0 26526438#1 26526438#2 647047586#0 647047586#2 171511655#0 171511655#1 171511655#2 171511655#3 171511655#4"/>
    </vehicle>
    <vehicle id="b900_27" depart="1073.84" type="bike" bikeFactor="0.7268882833243383">
        <route edges="6138338#3 -5061969#2"/>
    </vehicle>
    <vehicle id="b900_33" depart="1088.91" type="bike" bikeFactor="0.7707502392629856">
        <route edges="66009393#5 66009393#6 66009393#7 1059689204 E109 66009384#1 66009384#2 1059633432#1 1059633432#3 1059633432#4 10262314#1"/>
    </vehicle>
    <vehicle id="b900_28" depart="1102.87" type="bike" bikeFactor="0.7275128816928836" departLane="best" departSpeed="max">
        <route edges="42254202#1 743304092 E88 -26819169#2 -26819169#1 -66009364#3 -66009364#2 -66009364#1 -66009364#0 -5061969#8 -5061969#7 -5061969#6 -5061969#5 -5061969#4 -5061969#3 -5061969#2"/>
    </vehicle>
    <vehicle id="b900_39" depart="1109.37" type="bike" bikeFactor="0.5645245492016217">
        <route edges="5061969#6 -75651073 -23638431#1 23653817#0 23653817#1 75651074#0"/>
    </vehicle>
    <vehicle id="b900_40" depart="1111.05" type="bike" bikeFactor="0.6953647616388684">
        <route edges="66009393#4 66009393#5 66009393#6 66009393#7 1059689204 E109 66009384#1 66009384#2 1059633432#1 1059633432#3 1059633432#4 10262314#1"/>
    </vehicle>
    <vehicle id="b900_41" depart="1116.20" type="bike" bikeFactor="0.5603436385214666">
        <route edges="66009393#7 1059689204 E109 66009384#1 66009384#2 1059633432#1 1059633432#3 1059633432#4 10262314#1"/>
    </vehicle>
    <vehicle id="b0_80" depart="1157.16" type="bike" bikeFactor="0.8076950797394372" departLane="best" departSpeed="max">
        <route edges="5061969#2 5061969#3 5061969#4 5061969#5 5061969#6 5061969#7 5061969#8 66009364#0 66009364#1 66009364#2 66009364#3 26819169#0 26819169#2 -E87 10262883#3 10262883#4 10262883#5 10262883#6 10262883#7"/>
    </vehicle>
    <vehicle id="b900_56" depart="1188.65" type="bike" bikeFactor="0.5906208926871811">
        <route edges="E85 -E86 E90 E87 -26819169#2 -26819169#1 -66009364#3 -66009364#2 -66009364#1 -66009364#0 -5061969#8 -5061969#7 -5061969#6 -5061969#5 -5061969#4 -5061969#3 -5061969#2"/>
    </vehicle>
    <vehicle id="b900_57" depart="1193.29" type="bike" bikeFactor="0.6534672437106394">
        <route edges="66009393#5 66009393#6 66009393#7 1059689204 E109 66009384#1 66009384#2 1059633432#1 1059633432#3 1059633432#4 10262314#1"/>
    </vehicle>
    <vehicle id="b900_65" depart="1257.54" type="bike" bikeFactor="0.59297306687866">
        <route edges="E85 -E86 E90 E87 -26819169#2 -26819169#1 -66009364#3 -66009364#2 -66009364#1 -66009364#0 -5061969#8 -5061969#7 -5061969#6 -5061969#5 -5061969#4 -5061969#3 -5061969#2"/>
    </vehicle>
    <vehicle id="b900_66" depart="1286.80" type="bike" bikeFactor="0.5944529953151442" departLane="best" departSpeed="max">
        <route edges="42254202#1 743304092 E88 -26819169#2 -26819169#1 -66009364#3 -66009364#2 -66009364#1 -66009364#0 -5061969#8 -5061969#7 -5061969#6 -5061969#5 -5061969#4 -5061969#3 -5061969#2"/>
    </vehicle>
    <vehicle id="b900_91" depart="1361.68" type="bike" bikeFactor="0.5948984997511951">
        <route edges="23652947 6138338#3 -5061969#2"/>
    </vehicle>
    <vehicle id="b0_95" depart="1363.77" type="bike" bikeFactor="0.6660820035600394" departLane="best" departSpeed="max">
        <route edges="66009393#4 66009393#5 66009393#6 66009393#7 1059689204 E109 66009384#1 66009384#2 1059633432#1"/>
    </vehicle>
    <vehicle id="b900_105" depart="1407.96" type="bike" bikeFactor="0.7762507159102615">
        <route edges="66009393#7 1059689204 E109 66009384#1 66009384#2 1059633432#1 1059633432#3 1059633432#4 10262314#1"/>
    </vehicle>
    <vehicle id="b900_110" depart="1427.86" type="bike" bikeFactor="0.4729529650964425">
        <route edges="66009393#7 1059689204 E109 66009384#1 66009384#2 1059633432#1 1059633432#3 1059633432#4 10262314#1"/>
    </vehicle>
    <vehicle id="b900_112" depart="1439.44" type="bike" bikeFactor="0.7049677748393289">
        <route edges="E88 -26819169#2 -26819169#1 -66009364#3 -66009364#2 -66009364#1 -66009364#0 -5061969#8 -5061969#7 -5061969#6 -5061969#5 -5061969#4 -5061969#3 -5061969#2"/>
    </vehicle>
    <vehicle id="b900_116" depart="1462.20" type="bike" bikeFactor="0.6254521348119093">
        <route edges="66009393#4 66009393#5 66009393#6 66009393#7 1059689204 E109 66009384#1 66009384#2 1059633432#1 1059633432#3 1059633432#4 10262314#1"/>
    </vehicle>
    <vehicle id="b900_118" depart="1469.94" type="bike" bikeFactor="0.5291078401457271">
        <route edges="6138338#3 -5061969#2"/>
    </vehicle>
    <vehicle id="b900_13" depart="1488.93" type="bike" bikeFactor="0.4915423048747158" departLane="best" departSpeed="max">
        <route edges="5061969#2 5061969#3 5061969#4 5061969#5 5061969#6 5061969#7 5061969#8 66009364#0 66009364#1 66009364#2 66009364#3 26819169#0 26819169#2 -E87 10262883#3 10262883#4 10262883#5 10262883#6 10262883#7"/>
    </vehicle>
    <vehicle id="b900_123" depart="1504.43" type="bike" bikeFactor="0.5686212879325442">
        <route edges="23652947 6138338#3 -5061969#2"/>
    </vehicle>
    <vehicle id="b900_124" depart="1506.62" type="bike" bikeFactor="0.6897510685212532">
        <route edges="66009393#7 1059689204 E109 66009384#1 66009384#2 1059633432#1 1059633432#3 1059633432#4 10262314#1"/>
    </vehicle>
    <vehicle id="b900_25" depart="1552.27" type="bike" bikeFactor="0.6891275420204371" departLane="best" departSpeed="max">
        <route edges="-75651074#0 -23653817#1 -23653817#0 -23638431#0"/>
    </vehicle>
    <vehicle id="b900_128" depart="1557.66" type="bike" bikeFactor="0.6511430142663451" departLane="best" departSpeed="max">
        <route edges="42254202#1 743304092 E88 -26819169#2 -26819169#1 -66009364#3 -66009364#2 -66009364#1 -66009364#0 -5061969#8 -5061969#7 -5061969#6 -5061969#5 -5061969#4 -5061969#3 -5061969#2"/>
    </vehicle>
    <vehicle id="b900_140" depart="1559.57" type="bike" bikeFactor="0.5676905154053311">
        <route edges="66009364#1 66009364#2 66009364#3 -66009364#3 -66009364#2 -66009364#1 -66009364#0 -5061969#8 -5061969#7 -5061969#6 -5061969#5 -5061969#4 -5061969#3 -5061969#2"/>
    </vehicle>
    <vehicle id="b900_45" depart="1619.48" type="bike" bikeFactor="0.8160685320472796" departLane="best" departSpeed="max">
        <route edges="-75651074#0 -23653817#1 -23653817#0 -23638431#0"/>
    </vehicle>
    <vehicle id="b900_88" depart="1634.63" type="bike" bikeFactor="0.7986190045361136" departLane="best" departSpeed="max">
        <route edges="27432672#3 1059657620#1 -647047586#2 -647047586#0 -26526438#2 -26526438#1 -26526438#0 -66009384#4 -66009384#3 -1059633432#0 -10262883#7 -10262883#6 -10262883#5 -10262883#4 -10262883#3 E87"/>
    </vehicle>
    <vehicle id="b900_162" depart="1638.29" type="bike" bikeFactor="0.4897232476485551">
        <route edges="66009364#2 66009364#3 -66009364#3 -66009364#2 -66009364#1 -66009364#0 -5061969#8 -5061969#7 -75651073 23652947 -6138338#2 -64963746#2 -64963746#1"/>
    </vehicle>
    <vehicle id="b900_165" depart="1643.35" type="bike" bikeFactor="0.7360707305042399">
        <route edges="66009364#1 66009364#2 66009364#3 -66009364#3 -66009364#2 -66009364#1 -66009364#0 -5061969#8 -5061969#7 -5061969#6 -5061969#5 -5061969#4 -5061969#3 -5061969#2"/>
    </vehicle>
    <vehicle id="b900_170" depart="1659.88" type="bike" bikeFactor="0.5034363221971995">
        <route edges="E85 -E86 E90 E87 -26819169#2 -26819169#1 -66009364#3 -66009364#2 -66009364#1 -66009364#0 -5061969#8 -5061969#7 -5061969#6 -5061969#5 -5061969#4 -5061969#3 -5061969#2"/>
    </vehicle>
    <vehicle id="b900_174" depart="1672.89" type="bike" bikeFactor="0.6921651326760038">
        <route edges="E88 -26819169#2 -26819169#1 -66009364#3 -66009364#2 -66009364#1 -66009364#0 -5061969#8 -5061969#7 -5061969#6 -5061969#5 -5061969#4 -5061969#3 -5061969#2"/>
    </vehicle>
    <vehicle id="b900_67" depart="1683.68" type="bike" bikeFactor="0.8031493344419126" departLane="best" departSpeed="max">
        <route edges="5061969#2 5061969#3 5061969#4 5061969#5 5061969#6 5061969#7 5061969#8 -23652966#1 -23652966#0"/>
    </vehicle>
    <vehicle id="b900_180" depart="1689.71" type="bike" bikeFactor="0.5756616500110113">
        <route edges="66009364#2 66009364#3 -66009364#3 -66009364#2 -66009364#1 -66009364#0 -5061969#8 -5061969#7 -75651073 23652947 -6138338#2 -64963746#2 -64963746#1"/>
    </vehicle>
    <vehicle id="b900_177" depart="1692.13" type="bike" bikeFactor="0.6458448160640105" departLane="best" departSpeed="max">
        <route edges="66009393#4 66009393#5 66009393#6 66009393#7 1059689204 E109 66009384#1 66009384#2 1059633432#1 1059633432#3 1059633432#4 10262314#1"/>
    </vehicle>
    <vehicle id="b900_58" depart="1708.59" type="bike" bikeFactor="0.630586310123295" departLane="best" departSpeed="max">
        <route edges="66009393#4 66009393#5 66009393#6 66009393#7 1059689204 E109 66009384#1 66009384#2 66009384#3 66009384#4 26526438#0 26526438#1 26526438#2 26526438#3 26526438#4 26526438#5 26526438#6 26526438#7"/>
    </vehicle>
    <vehicle id="b900_83" depart="1730.83" type="bike" bikeFactor="0.7284175430330054" departLane="best" departSpeed="max">
        <route edges="-75651074#0 -23653817#1 -23653817#0 -23638431#0"/>
    </vehicle>
    <vehicle id="b900_184" depart="1741.74" type="bike" bikeFactor="0.6073333859357744" departLane="best" departSpeed="max">
        <route edges="42254202#1 743304092 E88 -26819169#2 -26819169#1 -66009364#3 -66009364#2 -66009364#1 -66009364#0 -5061969#8 -5061969#7 -5061969#6 -5061969#5 -5061969#4 -5061969#3 -5061969#2"/>
    </vehicle>
    <vehicle id="b900_92" depart="1787.89" type="bike" bikeFactor="0.701633933091062" departLane="best" departSpeed="max">
        <route edges="5061969#2 5061969#3 5061969#4 5061969#5 5061969#6 5061969#7 5061969#8 -23652966#1 -23652966#0"/>
    </vehicle>
    <vehicle id="b900_197" depart="1800.25" type="bike" bikeFactor="0.6584572546262275" departLane="best" departSpeed="max">
        <route edges="23638431#0 23653817#0 23653817#1 75651074#0"/>
    </vehicle>
    <vehicle id="b900_74" depart="1806.63" type="bike" bikeFactor="0.7776356465843922" departLane="best" departSpeed="max">
        <route edges="5061969#2 5061969#3 5061969#4 5061969#5 5061969#6 5061969#7 5061969#8 66009364#0 66009364#1 66009364#2 66009364#3 26819169#0 26819169#2 -E87 10262883#3 10262883#4 10262883#5 10262883#6 10262883#7"/>
    </vehicle>
    <vehicle id="b900_148" depart="1813.24" type="bike" bikeFactor="0.624862617926789" departLane="best" departSpeed="max">
        <route edges="-26526438#7 -26526438#6 111865013#0 111865013#1 111865013#2 1059657620#1 1059633431#0 10262314#0 10262314#0.14 10262314#1"/>
    </vehicle>
    <vehicle id="b1800_12" depart="1864.06" type="bike" bikeFactor="0.591047454904272">
        <route edges="6138338#3 -5061969#2"/>
    </vehicle>
    <vehicle id="b1800_21" depart="1894.11" type="bike" bikeFactor="0.5792679224451639">
        <route edges="66009364#1 66009364#2 66009364#3 -66009364#3 -66009364#2 -66009364#1 -66009364#0 -5061969#8 -5061969#7 -5061969#6 -5061969#5 -5061969#4 -5061969#3 -5061969#2"/>
    </vehicle>
    <vehicle id="b1800_23" depart="1904.56" type="bike" bikeFactor="0.6063395999843891">
        <route edges="66009393#5 66009393#6 66009393#7 1059689204 E109 66009384#1 66009384#2 1059633432#1 1059633432#3 1059633432#4 10262314#1"/>
    </vehicle>
    <vehicle id="b1800_26" depart="1910.96" type="bike" bikeFactor="0.654521718026368">
        <route edges="5061969#6 -75651073 -23638431#1 23653817#0 23653817#1 75651074#0"/>
    </vehicle>
    <vehicle id="b1800_37" depart="1947.25" type="bike" bikeFactor="0.6479389228559097">
        <route edges="66009393#4 66009393#5 66009393#6 66009393#7 1059689204 E109 66009384#1 66009384#2 1059633432#1 1059633432#3 1059633432#4 10262314#1"/>
    </vehicle>
    <vehicle id="b900_89" depart="1957.58" type="bike" bikeFactor="0.6044651906903602" departLane="best" departSpeed="max">
        <route edges="66009393#4 66009393#5 66009393#6 66009393#7 1059689204 E109 66009384#1 66009384#2 1059633432#1"/>
    </vehicle>
    <vehicle id="b1800_38" depart="1958.47" type="bike" bikeFactor="0.5151862158462982">
        <route edges="66009393#7 1059689204 E109 66009384#1 66009384#2 1059633432#1 1059633432#3 1059633432#4 10262314#1"/>
    </vehicle>
    <vehicle id="b1800_45" depart="1975.55" type="bike" bikeFactor="0.7548263081821761">
        <route edges="-10262883#7 -10262883#6 -10262883#5 -10262883#4 -10262883#3 E87 -26819169#2 -26819169#1 -66009364#3 -66009364#2 -66009364#1 -66009364#0 66009370#0 66009370#1 -26827958#5 -26827958#4 -26827958#3 -26827958#2 -26827958#1 E109 66009384#1 66009384#2 66009384#3 66009384#4 26526438#0 26526438#1 26526438#2 647047586#0 647047586#2 171511655#0 171511655#1 171511655#2 171511655#3 171511655#4"/>
    </vehicle>
    <vehicle id="b1800_47" depart="1994.51" type="bike" bikeFactor="0.6322368564339064">
        <route edges="E88 -26819169#2 -26819169#1 -66009364#3 -66009364#2 -66009364#1 -66009364#0 -5061969#8 -5061969#7 -5061969#6 -5061969#5 -5061969#4 -5061969#3 -5061969#2"/>
    </vehicle>
    <vehicle id="b900_108" depart="2022.45" type="bike" bikeFactor="0.5959635437748975" departLane="best" departSpeed="max">
        <route edges="66009393#4 66009393#5 66009393#6 66009393#7 1059689204 E109 66009384#1 66009384#2 1059633432#1"/>
    </vehicle>
    <vehicle id="b900_198" depart="2030.71" type="bike" bikeFactor="0.6317519263561489" departLane="best" departSpeed="max">
        <route edges="-26526438#7 -26526438#6 111865013#0 111865013#1 111865013#2 1059657620#1 1059633431#0 10262314#0 10262314#0.14 10262314#1"/>
    </vehicle>
    <vehicle id="b1800_0" depart="2042.87" type="bike" bikeFactor="0.6966077744583399" departLane="best" departSpeed="max">
        <route edges="-26526438#7 -26526438#6 111865013#0 111865013#1 111865013#2 1059657620#1 1059633431#0 10262314#0 10262314#0.14 10262314#1"/>
    </vehicle>
    <vehicle id="b1800_66" depart="2099.46" type="bike" bikeFactor="0.4624304000877982">
        <route edges="66009393#7 1059689204 E109 66009384#1 66009384#2 1059633432#1 1059633432#3 1059633432#4 10262314#1"/>
    </vehicle>
    <vehicle id="b1800_73" depart="2136.19" type="bike" bikeFactor="0.601280219016696">
        <route edges="E88 -26819169#2 -26819169#1 -66009364#3 -66009364#2 -66009364#1 -66009364#0 -5061969#8 -5061969#7 -5061969#6 -5061969#5 -5061969#4 -5061969#3 -5061969#2"/>
    </vehicle>
    <vehicle id="b1800_74" depart="2151.08" type="bike" bikeFactor="0.5583579340748772">
        <route edges="E85 -E86 E90 E87 -26819169#2 -26819169#1 -66009364#3 -66009364#2 -66009364#1 -66009364#0 -5061969#8 -5061969#7 -5061969#6 -5061969#5 -5061969#4 -5061969#3 -5061969#2"/>
    </vehicle>
    <vehicle id="b900_196" depart="2180.61" type="bike" bikeFactor="0.8748857782517635" departLane="best" departSpeed="max">
        <route edges="-75651074#0 -23653817#1 -23653817#0 -23638431#0"/>
    </vehicle>
    <vehicle id="b1800_79" depart="2182.35" type="bike" bikeFactor="0.5523697502215077">
        <route edges="E85 -E86 E90 E87 -26819169#2 -26819169#1 -66009364#3 -66009364#2 -66009364#1 -66009364#0 -5061969#8 -5061969#7 -5061969#6 -5061969#5 -5061969#4 -5061969#3 -5061969#2"/>
    </vehicle>
    <vehicle id="b900_156" depart="2218.06" type="bike" bikeFactor="0.787658737920979" departLane="best" departSpeed="max">
        <route edges="66009393#4 66009393#5 66009393#6 66009393#7 1059689204 E109 66009384#1 66009384#2 1059633432#1"/>
    </vehicle>
    <vehicle id="b1800_91" depart="2251.66" type="bike" bikeFactor="0.37718093812908143">
        <route edges="-10262883#7 -10262883#6 -10262883#5 -10262883#4 -10262883#3 E87 -26819169#2 -26819169#1 -66009364#3 -66009364#2 -66009364#1 -66009364#0 66009370#0 66009370#1 -26827958#5 -26827958#4 -26827958#3 -26827958#2 -26827958#1 E109 66009384#1 66009384#2 66009384#3 66009384#4 26526438#0 26526438#1 26526438#2 647047586#0 647047586#2 171511655#0 171511655#1 171511655#2 171511655#3 171511655#4"/>
    </vehicle>
    <vehicle id="b1800_99" depart="2274.43" type="bike" bikeFactor="0.6243231608253623">
        <route edges="66009364#2 66009364#3 -66009364#3 -66009364#2 -66009364#1 -66009364#0 -5061969#8 -5061969#7 -75651073 23652947 -6138338#2 -64963746#2 -64963746#1"/>
    </vehicle>
    <vehicle id="b1800_111" depart="2330.36" type="bike" bikeFactor="0.7385507318237393">
        <route edges="5061969#6 -75651073 -23638431#1 23653817#0 23653817#1 75651074#0"/>
    </vehicle>
    <vehicle id="b1800_43" depart="2374.55" type="bike" bikeFactor="0.6457432432000197" departLane="best" departSpeed="max">
        <route edges="-75651074#0 -23653817#1 -23653817#0 -23638431#0"/>
    </vehicle>
    <vehicle id="b1800_116" depart="2375.15" type="bike" bikeFactor="0.726228832865034" departLane="best" departSpeed="max">
        <route edges="23638431#0 23653817#0 23653817#1 75651074#0"/>
    </vehicle>
    <vehicle id="b1800_120" depart="2381.18" type="bike" bikeFactor="0.6488773634841115">
        <route edges="66009393#7 1059689204 E109 66009384#1 66009384#2 1059633432#1 1059633432#3 1059633432#4 10262314#1"/>
    </vehicle>
    <vehicle id="b1800_3" depart="2403.08" type="bike" bikeFactor="0.43484582811128636" departLane="best" departSpeed="max">
        <route edges="-75651074#0 -6138338#0"/>
    </vehicle>
    <vehicle id="b1800_123" depart="2406.83" type="bike" bikeFactor="0.515233034634354" departLane="best" departSpeed="max">
        <route edges="23638431#0 23653817#0 23653817#1 75651074#0"/>
    </vehicle>
    <vehicle id="b1800_131" depart="2415.09" type="bike" bikeFactor="0.5250101207529694">
        <route edges="66009393#4 66009393#5 66009393#6 66009393#7 1059689204 E109 66009384#1 66009384#2 1059633432#1 1059633432#3 1059633432#4 10262314#1"/>
    </vehicle>
    <vehicle id="b1800_17" depart="2476.32" type="bike" bikeFactor="0.5249653214686447" departLane="best" departSpeed="max">
        <route edges="66009393#4 66009393#5 66009393#6 66009393#7 1059689204 E109 66009384#1 66009384#2 1059633432#1"/>
    </vehicle>
    <vehicle id="b1800_151" depart="2500.15" type="bike" bikeFactor="0.758128800687548">
        <route edges="66009393#5 66009393#6 66009393#7 1059689204 E109 66009384#1 66009384#2 1059633432#1 1059633432#3 1059633432#4 10262314#1"/>
    </vehicle>
    <vehicle id="b1800_152" depart="2505.23" type="bike" bikeFactor="0.7002618717259955">
        <route edges="66009393#7 1059689204 E109 66009384#1 66009384#2 1059633432#1 1059633432#3 1059633432#4 10262314#1"/>
    </vehicle>
    <vehicle id="b1800_53" depart="2547.29" type="bike" bikeFactor="0.40663023512459323" departLane="best" departSpeed="max">
        <route edges="5061969#2 5061969#3 5061969#4 5061969#5 5061969#6 5061969#7 5061969#8 66009364#0 66009364#1 66009364#2 66009364#3 26819169#0 26819169#2 -E87 10262883#3 10262883#4 10262883#5 10262883#6 10262883#7"/>
    </vehicle>
    <vehicle id="b1800_172" depart="2620.64" type="bike" bikeFactor="0.9248994437078243">
        <route edges="66009364#2 66009364#3 -66009364#3 -66009364#2 -66009364#1 -66009364#0 -5061969#8 -5061969#7 -75651073 23652947 -6138338#2 -64963746#2 -64963746#1"/>
    </vehicle>
    <vehicle id="b1800_54" depart="2624.15" type="bike" bikeFactor="0.6435496326357192" departLane="best" departSpeed="max">
        <route edges="-75651074#0 -6138338#0"/>
    </vehicle>
    <vehicle id="b1800_87" depart="2691.48" type="bike" bikeFactor="0.6035808703223579" departLane="best" departSpeed="max">
        <route edges="-75651074#0 -23653817#1 -23653817#0 -23638431#0"/>
    </vehicle>
    <vehicle id="b1800_182" depart="2693.49" type="bike" bikeFactor="0.4660796065591252">
        <route edges="66009364#1 66009364#2 66009364#3 -66009364#3 -66009364#2 -66009364#1 -66009364#0 -5061969#8 -5061969#7 -5061969#6 -5061969#5 -5061969#4 -5061969#3 -5061969#2"/>
    </vehicle>
    <vehicle id="b2700_5" depart="2729.99" type="bike" bikeFactor="0.611400011816895">
        <route edges="26827958#2 26827958#3 26827958#4 26827958#5 -66009370#1 -66009370#0 -5061969#8 -5061969#7 -75651073 -23638431#1 23653817#0 23653817#1 75651074#0"/>
    </vehicle>
    <vehicle id="b2700_10" depart="2740.20" type="bike" bikeFactor="0.8585634824935822">
        <route edges="23639099 378265058#1 E90 10262883#3 10262883#4 10262883#5 10262883#6 10262883#7 1059633432#0 1059633432#1 1059633432#3 1059633432#4 10262314#1"/>
    </vehicle>
    <vehicle id="b2700_8" depart="2749.41" type="bike" bikeFactor="0.6556021744335162" departLane="best" departSpeed="max">
        <route edges="42254202#1 743304092 E88 -26819169#2 -26819169#1 -66009364#3 -66009364#2 -66009364#1 -66009364#0 -5061969#8 -5061969#7 -5061969#6 -5061969#5 -5061969#4 -5061969#3 -5061969#2"/>
    </vehicle>
    <vehicle id="b2700_12" depart="2763.33" type="bike" bikeFactor="0.7000213625124477">
        <route edges="-27016746#0 -10262883#7 -10262883#6 -10262883#5 -10262883#4 -10262883#3 E87 -26819169#2 -26819169#1 -66009364#3 -66009364#2 -66009364#1 -66009364#0 -5061969#8 -5061969#7 -5061969#6 -5061969#5 -5061969#4 -5061969#3 -5061969#2"/>
    </vehicle>
    <vehicle id="b1800_154" depart="2769.36" type="bike" bikeFactor="0.7898630787495958" departLane="best" departSpeed="max">
        <route edges="-26526438#7 -26526438#6 111865013#0 111865013#1 111865013#2 1059657620#1 1059633431#0 10262314#0 10262314#0.14 10262314#1"/>
    </vehicle>
    <vehicle id="b2700_19" depart="2788.25" type="bike" bikeFactor="0.60861155980503" departLane="best" departSpeed="max">
        <route edges="-75651074#0 6138338#1 -64963746#2 -64963746#1"/>
    </vehicle>
    <vehicle id="b1800_159" depart="2828.04" type="bike" bikeFactor="0.5359716222592311" departLane="best" departSpeed="max">
        <route edges="27432672#3 1059657620#1 -647047586#2 -647047586#0 -26526438#2 -26526438#1 -26526438#0 -66009384#4 -66009384#3 -1059633432#0 -10262883#7 -10262883#6 -10262883#5 -10262883#4 -10262883#3 E87"/>
    </vehicle>
    <vehicle id="b2700_29" depart="2854.26" type="bike" bikeFactor="0.6540602348763879">
        <route edges="10262314#0 10262314#0.14 -1059633432#5 -1059633432#3 -1059633432#2 -66009384#2 -66009384#1 -E109 -1059689204 -66009393#7 -66009393#6 -66009393#5 -66009393#4"/>
    </vehicle>
    <vehicle id="b1800_165" depart="2858.87" type="bike" bikeFactor="0.5503216427950045" departLane="best" departSpeed="max">
        <route edges="27432672#3 1059657620#1 -647047586#2 -647047586#0 -26526438#2 -26526438#1 -26526438#0 -66009384#4 -66009384#3 -1059633432#0 -10262883#7 -10262883#6 -10262883#5 -10262883#4 -10262883#3 E87"/>
    </vehicle>
    <vehicle id="b2700_30" depart="2864.64" type="bike" bikeFactor="0.6948500965666483">
        <route edges="-5061969#4 -5061969#3 -5061969#2"/>
    </vehicle>
    <vehicle id="b2700_31" depart="2865.80" type="bike" bikeFactor="0.612523802312683">