<?xml version="1.0" encoding="UTF-8"?>

<!-- generated on 2026-04-21T09:39:43.246451-03:00 by Eclipse SUMO netconvert v1_26_0+1301-14f1cb55af0
<netconvertConfiguration xmlns:xsi="http://www.w3.org/2001/XMLSchema-instance" xsi:noNamespaceSchemaLocation="http://sumo.dlr.de/xsd/netconvertConfiguration.xsd">

    <input>
        <sumo-net-file value="hats.net.xml"/>
    </input>

    <output>
        <output-file value="hats_cropped.net.xml"/>
        <output.street-names value="true"/>
    </output>

    <processing>
        <geometry.min-radius.fix.railways value="false"/>
        <geometry.avoid-overlap value="false"/>
        <geometry.max-grade.fix value="false"/>
        <offset.disable-normalization value="true"/>
    </processing>

    <edge_removal>
        <keep-edges.in-boundary value="215.03,4016.20,1171.76,4979.51"/>
    </edge_removal>

    <junctions>
        <no-turnarounds value="true"/>
    </junctions>

</netconvertConfiguration>
-->

<net version="1.20" junctionCornerDetail="5" limitTurnSpeed="5.50" avoidOverlap="0" xmlns:xsi="http://www.w3.org/2001/XMLSchema-instance" xsi:noNamespaceSchemaLocation="http://sumo.dlr.de/xsd/net_file.xsd">

    <location netOffset="-1081747.13,-6862246.01" convBoundary="261.23,3704.77,1386.58,5057.07" origBoundary="9.716327,52.342246,9.764112,52.389320" projParameter="+proj=merc +a=6378137 +b=6378137 +lat_ts=0.0 +lon_0=0.0 +x_0=0.0 +y_0=0 +k=1.0 +units=m +nadgrids=@null +wktext +no_defs"/>

    <type id="cycleway.lane|highway.tertiary" priority="10" numLanes="1" speed="22.22" disallow="tram rail_urban rail rail_electric rail_fast ship" oneway="1" bikeLaneWidth="-1.00"/>
    <type id="highway.cycleway" priority="1" numLanes="1" speed="5.56" allow="bicycle" oneway="1" width="2.00"/>
    <type id="highway.footway" priority="1" numLanes="1" speed="2.78" allow="pedestrian" oneway="1" width="2.00"/>
    <type id="highway.path" priority="1" numLanes="1" speed="5.56" allow="pedestrian bicycle" oneway="1" width="2.00"/>
    <type id="highway.residential" priority="3" numLanes="1" speed="13.89" disallow="tram rail_urban rail rail_electric rail_fast ship" oneway="1"/>
    <type id="highway.secondary" priority="11" numLanes="1" speed="27.78" disallow="tram rail_urban rail rail_electric rail_fast ship" oneway="1"/>
    <type id="highway.service" priority="1" numLanes="1" speed="5.56" allow="pedestrian delivery bicycle" oneway="1"/>
    <type id="highway.tertiary" priority="10" numLanes="1" speed="22.22" disallow="tram rail_urban rail rail_electric rail_fast ship" oneway="1"/>

    <edge id=":10128322931_0" function="internal">
        <lane id=":10128322931_0_0" index="0" allow="bicycle" speed="5.56" length="0.25" width="2.00" shape="1123.89,4240.75 1123.70,4240.91"/>
    </edge>
    <edge id=":10128322939_0" function="internal">
        <lane id=":10128322939_0_0" index="0" disallow="pedestrian bicycle tram rail_urban rail rail_electric rail_fast ship cable_car subway" speed="13.89" length="0.31" shape="1117.20,4232.45 1116.96,4232.65"/>
    </edge>
    <edge id=":10128322939_1" function="internal">
        <lane id=":10128322939_1_0" index="0" disallow="pedestrian bicycle tram rail_urban rail rail_electric rail_fast ship cable_car subway" speed="13.89" length="0.29" shape="1114.93,4230.18 1115.15,4230.00"/>
    </edge>
    <edge id=":10128322940_0" function="internal">
        <lane id=":10128322940_0_0" index="0" allow="bicycle" speed="5.56" length="0.21" width="2.00" shape="1106.79,4219.79 1106.96,4219.67"/>
    </edge>
    <edge id=":10128322941_0" function="internal">
        <lane id=":10128322941_0_0" index="0" allow="bicycle" speed="5.56" length="7.49" width="2.00" shape="1093.54,4233.17 1093.09,4232.01 1093.50,4230.63 1094.76,4229.04 1096.87,4227.24"/>
    </edge>
    <edge id=":10128322941_1" function="internal">
        <lane id=":10128322941_1_0" index="0" allow="bicycle" speed="5.56" length="9.51" width="2.00" shape="1089.57,4233.32 1091.65,4231.41 1093.11,4230.14 1094.62,4228.94 1096.87,4227.24"/>
    </edge>
    <edge id=":10128322941_2" function="internal">
        <lane id=":10128322941_2_0" index="0" allow="bicycle" speed="5.56" length="7.49" width="2.00" shape="1089.57,4233.32 1091.73,4231.57 1093.52,4230.62 1094.94,4230.47 1096.01,4231.13"/>
    </edge>
    <edge id=":10279602897_0" function="internal">
        <lane id=":10279602897_0_0" index="0" disallow="tram rail_urban rail rail_electric rail_fast ship cable_car subway" speed="13.89" length="0.10" shape="698.07,4472.18 698.07,4472.18"/>
    </edge>
    <edge id=":10279602897_1" function="internal">
        <lane id=":10279602897_1_0" index="0" disallow="tram rail_urban rail rail_electric rail_fast ship cable_car subway" speed="13.89" length="0.10" shape="695.03,4471.16 695.03,4471.16"/>
    </edge>
    <edge id=":10732234392_0" function="internal">
        <lane id=":10732234392_0_0" index="0" disallow="pedestrian bicycle tram rail_urban rail rail_electric rail_fast ship cable_car subway" speed="13.89" length="8.21" shape="963.61,4553.53 961.50,4554.70 960.24,4555.83 958.98,4556.96 956.87,4558.13"/>
        <lane id=":10732234392_0_1" index="1" disallow="pedestrian bicycle tram rail_urban rail rail_electric rail_fast ship cable_car subway" speed="13.89" length="8.21" shape="962.36,4550.58 960.25,4551.75 958.99,4552.88 957.73,4554.02 955.62,4555.18"/>
        <lane id=":10732234392_0_2" index="2" disallow="pedestrian bicycle tram rail_urban rail rail_electric rail_fast ship cable_car subway" speed="13.89" length="8.21" shape="962.36,4550.58 960.05,4551.29 958.36,4551.41 956.67,4551.53 954.37,4552.24"/>
    </edge>
    <edge id=":10880302987_0" function="internal">
        <lane id=":10880302987_0_0" index="0" allow="bicycle" speed="5.56" length="0.10" width="2.00" shape="603.69,4105.97 603.69,4105.97"/>
    </edge>
    <edge id=":10880302987_1" function="internal">
        <lane id=":10880302987_1_0" index="0" allow="bicycle" speed="5.56" length="0.10" width="2.00" shape="602.03,4104.87 602.03,4104.87"/>
    </edge>
    <edge id=":11478801050_0" function="internal">
        <lane id=":11478801050_0_0" index="0" allow="bicycle" speed="5.56" length="0.10" width="2.00" shape="880.46,4534.13 880.46,4534.13"/>
    </edge>
    <edge id=":11478801050_1" function="internal">
        <lane id=":11478801050_1_0" index="0" allow="bicycle" speed="5.56" length="0.10" width="2.00" shape="879.32,4532.49 879.32,4532.49"/>
    </edge>
    <edge id=":11478801053_0" function="internal">
        <lane id=":11478801053_0_0" index="0" allow="bicycle" speed="5.56" length="0.10" width="2.00" shape="848.94,4556.13 848.94,4556.13"/>
    </edge>
    <edge id=":11478801053_1" function="internal">
        <lane id=":11478801053_1_0" index="0" allow="bicycle" speed="5.56" length="0.10" width="2.00" shape="847.80,4554.49 847.80,4554.49"/>
    </edge>
    <edge id=":11479031950_0" function="internal">
        <lane id=":11479031950_0_0" index="0" allow="bicycle" speed="5.56" length="0.10" width="2.00" shape="1151.49,4649.42 1151.49,4649.42"/>
    </edge>
    <edge id=":11479031950_1" function="internal">
        <lane id=":11479031950_1_0" index="0" allow="bicycle" speed="5.56" length="0.10" width="2.00" shape="1153.05,4648.18 1153.05,4648.18"/>
    </edge>
    <edge id=":11479031952_0" function="internal">
        <lane id=":11479031952_0_0" index="0" allow="bicycle" speed="5.56" length="0.10" width="2.00" shape="1133.94,4627.47 1133.94,4627.47"/>
    </edge>
    <edge id=":11479031952_1" function="internal">
        <lane id=":11479031952_1_0" index="0" allow="bicycle" speed="5.56" length="0.10" width="2.00" shape="1135.50,4626.23 1135.50,4626.23"/>
    </edge>
    <edge id=":1273568699_0" function="internal">
        <lane id=":1273568699_0_0" index="0" allow="bicycle" speed="5.56" length="0.10" width="2.00" shape="784.41,4053.28 784.44,4053.32"/>
    </edge>
    <edge id=":1273568699_1" function="internal">
        <lane id=":1273568699_1_0" index="0" allow="bicycle" speed="2.89" length="2.92" width="2.00" shape="784.41,4053.28 784.44,4052.38 784.73,4051.90 785.29,4051.85 786.11,4052.22"/>
    </edge>
    <edge id=":1273568699_2" function="internal">
        <lane id=":1273568699_2_0" index="0" allow="bicycle" speed="5.56" length="0.10" width="2.00" shape="786.08,4052.18 786.11,4052.22"/>
    </edge>
    <edge id=":1273568792_0" function="internal">
        <lane id=":1273568792_0_0" index="0" allow="bicycle" speed="5.56" length="6.93" width="2.00" shape="855.99,4167.65 852.37,4161.74"/>
    </edge>
    <edge id=":1273568792_1" function="internal">
        <lane id=":1273568792_1_0" index="0" allow="bicycle" speed="5.56" length="7.27" width="2.00" shape="855.99,4167.65 855.22,4165.82 855.22,4164.17 856.00,4162.73 857.56,4161.48"/>
    </edge>
    <edge id=":1273568792_2" function="internal">
        <lane id=":1273568792_2_0" index="0" allow="bicycle" speed="4.43" length="4.03" width="2.00" shape="858.58,4163.20 857.71,4163.90 857.28,4164.70 857.28,4165.61 857.70,4166.63"/>
    </edge>
    <edge id=":1273568792_3" function="internal">
        <lane id=":1273568792_3_0" index="0" allow="bicycle" speed="5.56" length="7.23" width="2.00" shape="858.58,4163.20 856.74,4163.97 855.10,4163.98 853.64,4163.24 852.37,4161.74"/>
    </edge>
    <edge id=":1273568792_4" function="internal">
        <lane id=":1273568792_4_0" index="0" allow="bicycle" speed="4.49" length="4.06" width="2.00" shape="854.07,4160.68 854.78,4161.51 855.60,4161.93 856.52,4161.92 857.56,4161.48"/>
    </edge>
    <edge id=":1273568792_5" function="internal">
        <lane id=":1273568792_5_0" index="0" allow="bicycle" speed="5.56" length="6.98" width="2.00" shape="854.07,4160.68 857.70,4166.63"/>
    </edge>
    <edge id=":1368112271_0" function="internal">
        <lane id=":1368112271_0_0" index="0" disallow="pedestrian bicycle tram rail_urban rail rail_electric rail_fast ship cable_car subway" speed="13.89" length="7.83" shape="1124.08,4585.22 1122.37,4583.52 1120.95,4582.59 1119.58,4581.62 1118.02,4579.80"/>
        <lane id=":1368112271_0_1" index="1" disallow="pedestrian bicycle tram rail_urban rail rail_electric rail_fast ship cable_car subway" speed="13.89" length="7.83" shape="1126.56,4583.20 1124.90,4581.56 1123.51,4580.67 1122.17,4579.75 1120.66,4577.99"/>
        <lane id=":1368112271_0_2" index="2" disallow="pedestrian bicycle tram rail_urban rail rail_electric rail_fast ship cable_car subway" speed="13.89" length="7.83" shape="1129.04,4581.17 1127.43,4579.59 1126.07,4578.75 1124.76,4577.87 1123.30,4576.18"/>
        <lane id=":1368112271_0_3" index="3" disallow="pedestrian bicycle tram rail_urban rail rail_electric rail_fast ship cable_car subway" speed="13.89" length="7.83" shape="1129.04,4581.17 1127.85,4579.32 1127.39,4577.84 1126.98,4576.33 1125.94,4574.37"/>
    </edge>
    <edge id=":1479401914_0" function="internal">
        <lane id=":1479401914_0_0" index="0" disallow="pedestrian bicycle tram rail_urban rail rail_electric rail_fast ship cable_car subway" speed="13.89" length="8.21" shape="938.58,4193.90 940.02,4195.83 941.31,4196.94 942.60,4198.04 944.03,4199.98"/>
        <lane id=":1479401914_0_1" index="1" disallow="pedestrian bicycle tram rail_urban rail rail_electric rail_fast ship cable_car subway" speed="13.89" length="8.21" shape="935.83,4195.53 937.27,4197.47 938.56,4198.57 939.85,4199.67 941.28,4201.61"/>
        <lane id=":1479401914_0_2" index="2" disallow="pedestrian bicycle tram rail_urban rail rail_electric rail_fast ship cable_car subway" speed="13.89" length="8.21" shape="933.08,4197.17 934.51,4199.10 935.80,4200.19 937.09,4201.29 938.52,4203.23"/>
        <lane id=":1479401914_0_3" index="3" disallow="pedestrian bicycle tram rail_urban rail rail_electric rail_fast ship cable_car subway" speed="13.89" length="8.21" shape="933.08,4197.17 934.08,4199.35 934.42,4201.01 934.76,4202.66 935.76,4204.85"/>
    </edge>
    <edge id=":1536704790_0" function="internal">
        <lane id=":1536704790_0_0" index="0" disallow="pedestrian bicycle tram rail_urban rail rail_electric rail_fast ship cable_car subway" speed="13.89" length="0.16" shape="1083.87,4263.07 1083.81,4263.13"/>
        <lane id=":1536704790_0_1" index="1" disallow="pedestrian bicycle tram rail_urban rail rail_electric rail_fast ship cable_car subway" speed="13.89" length="0.16" shape="1081.90,4260.55 1081.71,4260.71"/>
    </edge>
    <edge id=":1536704790_2" function="internal">
        <lane id=":1536704790_2_0" index="0" disallow="pedestrian bicycle tram rail_urban rail rail_electric rail_fast ship cable_car subway" speed="13.89" length="0.41" shape="1079.62,4258.29 1079.93,4258.03"/>
    </edge>
    <edge id=":1536704810_0" function="internal">
        <lane id=":1536704810_0_0" index="0" disallow="tram rail_urban rail rail_electric rail_fast ship cable_car subway" speed="13.89" length="0.10" shape="1159.78,4315.54 1159.78,4315.54"/>
    </edge>
    <edge id=":1536704810_1" function="internal">
        <lane id=":1536704810_1_0" index="0" disallow="tram rail_urban rail rail_electric rail_fast ship cable_car subway" speed="13.89" length="0.10" shape="1162.28,4313.54 1162.28,4313.54"/>
    </edge>
    <edge id=":1825298566_0" function="internal">
        <lane id=":1825298566_0_0" index="0" allow="bicycle" speed="5.56" length="0.10" width="2.00" shape="1045.18,4272.06 1045.16,4272.08"/>
    </edge>
    <edge id=":2013499467_0" function="internal">
        <lane id=":2013499467_0_0" index="0" allow="bicycle" speed="4.01" length="5.56" width="2.00" shape="589.27,4133.31 589.01,4131.45 588.47,4130.72 587.66,4131.12 586.57,4132.65"/>
    </edge>
    <edge id=":2013499467_1" function="internal">
        <lane id=":2013499467_1_0" index="0" allow="bicycle" speed="5.56" length="10.96" width="2.00" shape="589.27,4133.31 588.92,4130.13 588.61,4127.70 588.86,4125.43 590.21,4122.72"/>
    </edge>
    <edge id=":2013499467_2" function="internal">
        <lane id=":2013499467_2_0" index="0" allow="bicycle" speed="5.56" length="9.74" width="2.00" shape="591.88,4123.82 590.65,4126.28 590.51,4128.22 590.89,4130.31 591.26,4133.21"/>
    </edge>
    <edge id=":2013499467_3" function="internal">
        <lane id=":2013499467_3_0" index="0" allow="bicycle" speed="5.56" length="10.30" width="2.00" shape="591.88,4123.82 586.57,4132.65"/>
    </edge>
    <edge id=":2013499467_4" function="internal">
        <lane id=":2013499467_4_0" index="0" allow="bicycle" speed="5.56" length="10.41" width="2.00" shape="584.85,4131.64 590.21,4122.72"/>
    </edge>
    <edge id=":2013499467_5" function="internal">
        <lane id=":2013499467_5_0" index="0" allow="bicycle" speed="5.56" length="13.24" width="2.00" shape="584.85,4131.64 587.43,4128.00 589.37,4127.05 590.64,4128.78 591.26,4133.21"/>
    </edge>
    <edge id=":2013499490_0" function="internal">
        <lane id=":2013499490_0_0" index="0" allow="bicycle" speed="5.56" length="8.40" width="2.00" shape="467.31,4576.53,-0.12 467.23,4568.13"/>
    </edge>
    <edge id=":2013499490_1" function="internal">
        <lane id=":2013499490_1_0" index="0" allow="bicycle" speed="5.55" length="10.48" width="2.00" shape="467.31,4576.53,-0.12 467.67,4573.24,-0.08 468.81,4571.69,-0.06 470.73,4571.87,-0.04 473.43,4573.80"/>
    </edge>
    <edge id=":2013499490_2" function="internal">
        <lane id=":2013499490_2_0" index="0" allow="bicycle" speed="3.94" length="4.75" width="2.00" shape="472.08,4575.28 470.86,4574.41,-0.04 469.99,4574.32,-0.06 469.47,4575.03,-0.08 469.31,4576.52,-0.12"/>
    </edge>
    <edge id=":2013499490_3" function="internal">
        <lane id=":2013499490_3_0" index="0" allow="bicycle" speed="5.56" length="8.83" width="2.00" shape="472.08,4575.28 469.98,4573.20 468.47,4571.32 467.55,4569.63 467.23,4568.13"/>
    </edge>
    <edge id=":2013499490_4" function="internal">
        <lane id=":2013499490_4_0" index="0" allow="bicycle" speed="5.56" length="7.21" width="2.00" shape="469.23,4568.10 469.50,4569.18 470.29,4570.49 471.60,4572.03 473.43,4573.80"/>
    </edge>
    <edge id=":2013499490_5" function="internal">
        <lane id=":2013499490_5_0" index="0" allow="bicycle" speed="5.56" length="8.43" width="2.00" shape="469.23,4568.10 469.31,4576.52,-0.12"/>
    </edge>
    <edge id=":2013499519_0" function="internal">
        <lane id=":2013499519_0_0" index="0" allow="bicycle" speed="5.56" length="17.86" width="2.00" shape="512.76,4694.84 512.33,4690.69 511.32,4686.07 510.10,4681.48 509.04,4677.41"/>
    </edge>
    <edge id=":2013499519_1" function="internal">
        <lane id=":2013499519_1_0" index="0" allow="bicycle" speed="5.56" length="18.13" width="2.00" shape="512.76,4694.84 513.36,4676.72"/>
    </edge>
    <edge id=":2013499519_2" function="internal">
        <lane id=":2013499519_2_0" index="0" allow="bicycle" speed="5.56" length="18.04" width="2.00" shape="515.36,4676.80 514.76,4694.83"/>
    </edge>
    <edge id=":2013499519_3" function="internal">
        <lane id=":2013499519_3_0" index="0" allow="bicycle" speed="4.62" length="8.83" width="2.00" shape="515.36,4676.80 514.43,4678.86 512.45,4679.71 510.35,4679.26 509.04,4677.41"/>
    </edge>
    <edge id=":2013499519_4" function="internal">
        <lane id=":2013499519_4_0" index="0" allow="bicycle" speed="4.72" length="9.26" width="2.00" shape="510.99,4676.95 511.90,4680.20 512.60,4681.24 513.09,4680.08 513.36,4676.72"/>
    </edge>
    <edge id=":2013499519_5" function="internal">
        <lane id=":2013499519_5_0" index="0" allow="bicycle" speed="5.56" length="18.30" width="2.00" shape="510.99,4676.95 512.06,4681.09 513.29,4685.84 514.32,4690.61 514.76,4694.83"/>
    </edge>
    <edge id=":2063973030_0" function="internal">
        <lane id=":2063973030_0_0" index="0" allow="bicycle" speed="5.56" length="0.65" width="2.00" shape="470.27,4712.52,-3.00 470.27,4712.71,-3.00 470.26,4712.84,-3.00 470.24,4712.97,-3.00 470.20,4713.16,-3.00"/>
    </edge>
    <edge id=":2063973030_1" function="internal">
        <lane id=":2063973030_1_0" index="0" allow="bicycle" speed="5.56" length="0.22" width="2.00" shape="468.25,4712.75,-3.00 468.26,4712.68,-3.00 468.27,4712.64,-3.00 468.27,4712.60,-3.00 468.27,4712.53,-3.00"/>
    </edge>
    <edge id=":2063973033_0" function="internal">
        <lane id=":2063973033_0_0" index="0" allow="bicycle" speed="5.56" length="0.10" width="2.00" shape="457.39,4774.16,-3.00 457.37,4774.24,-3.00"/>
    </edge>
    <edge id=":2063973033_1" function="internal">
        <lane id=":2063973033_1_0" index="0" allow="bicycle" speed="5.56" length="0.10" width="2.00" shape="455.45,4773.66,-3.00 455.43,4773.74,-3.00"/>
    </edge>
    <edge id=":225974785_0" function="internal">
        <lane id=":225974785_0_0" index="0" disallow="pedestrian bicycle tram rail_urban rail rail_electric rail_fast ship cable_car subway" speed="13.89" length="0.21" shape="323.06,4694.01 323.12,4694.03 323.16,4694.05 323.20,4694.06 323.26,4694.07"/>
    </edge>
    <edge id=":2261290570_0" function="internal">
        <lane id=":2261290570_0_0" index="0" allow="bicycle" speed="5.56" length="0.30" width="2.00" shape="512.90,4713.88 512.90,4713.58"/>
    </edge>
    <edge id=":2261290570_1" function="internal">
        <lane id=":2261290570_1_0" index="0" allow="bicycle" speed="5.56" length="0.26" width="2.00" shape="514.90,4713.56 514.90,4713.82"/>
    </edge>
    <edge id=":2261290570_2" function="internal">
        <lane id=":2261290570_2_0" index="0" allow="bicycle" speed="2.89" length="2.92" width="2.00" shape="514.90,4713.56 514.40,4714.32 513.91,4714.57 513.40,4714.33 512.90,4713.58"/>
    </edge>
    <edge id=":2261290571_0" function="internal">
        <lane id=":2261290571_0_0" index="0" allow="bicycle" speed="4.86" length="4.45" width="2.00" shape="515.18,4723.60 515.37,4724.91 515.84,4725.88 516.59,4726.51 517.63,4726.80"/>
    </edge>
    <edge id=":2261290571_1" function="internal">
        <lane id=":2261290571_1_0" index="0" allow="bicycle" speed="4.37" length="4.05" width="2.00" shape="510.62,4726.05 511.77,4725.92 512.58,4725.49 513.05,4724.73 513.19,4723.66"/>
    </edge>
    <edge id=":2261290571_2" function="internal">
        <lane id=":2261290571_2_0" index="0" allow="bicycle" speed="5.56" length="7.05" width="2.00" shape="510.62,4726.05 517.63,4726.80"/>
    </edge>
    <edge id=":2261290572_0" function="internal">
        <lane id=":2261290572_0_0" index="0" disallow="pedestrian bicycle tram rail_urban rail rail_electric rail_fast ship cable_car subway" speed="13.89" length="8.21" shape="629.97,4722.57 631.88,4721.10 632.96,4719.80 634.04,4718.49 635.94,4717.02"/>
        <lane id=":2261290572_0_1" index="1" disallow="pedestrian bicycle tram rail_urban rail rail_electric rail_fast ship cable_car subway" speed="13.89" length="8.21" shape="631.65,4725.30 633.56,4723.83 634.64,4722.52 635.71,4721.21 637.62,4719.74"/>
        <lane id=":2261290572_0_2" index="2" disallow="pedestrian bicycle tram rail_urban rail rail_electric rail_fast ship cable_car subway" speed="13.89" length="8.21" shape="631.65,4725.30 633.82,4724.25 635.48,4723.88 637.13,4723.51 639.30,4722.46"/>
    </edge>
    <edge id=":2261290589_0" function="internal">
        <lane id=":2261290589_0_0" index="0" allow="bicycle" speed="4.31" length="7.20" width="2.00" shape="442.87,4830.98,-1.75 442.50,4828.45,-1.75 441.96,4827.56,-1.75 441.24,4828.32,-1.75 440.36,4830.72,-1.75"/>
    </edge>
    <edge id=":2261290589_1" function="internal">
        <lane id=":2261290589_1_0" index="0" allow="bicycle" speed="5.56" length="14.20" width="2.00" shape="442.87,4830.98,-1.75 442.42,4827.35,-1.76 441.95,4823.86,-1.78 441.84,4820.41,-1.79 442.44,4816.89,-1.80"/>
    </edge>
    <edge id=":2261290589_2" function="internal">
        <lane id=":2261290589_2_0" index="0" allow="bicycle" speed="5.56" length="13.47" width="2.00" shape="444.35,4817.47,-1.80 443.76,4820.87,-1.79 443.91,4824.07,-1.78 444.40,4827.30,-1.76 444.86,4830.81,-1.75"/>
    </edge>
    <edge id=":2261290589_3" function="internal">
        <lane id=":2261290589_3_0" index="0" allow="bicycle" speed="5.56" length="13.84" width="2.00" shape="444.35,4817.47,-1.80 440.36,4830.72,-1.75"/>
    </edge>
    <edge id=":2261290589_4" function="internal">
        <lane id=":2261290589_4_0" index="0" allow="bicycle" speed="5.56" length="13.84" width="2.00" shape="438.44,4830.14,-1.56 442.44,4816.89,-1.80"/>
    </edge>
    <edge id=":2261290589_5" function="internal">
        <lane id=":2261290589_5_0" index="0" allow="bicycle" speed="5.56" length="18.39" width="2.00" shape="438.44,4830.14,-1.56 440.70,4824.01,-1.63 442.53,4822.08,-1.65 443.91,4824.35,-1.68 444.86,4830.81,-1.75"/>
    </edge>
    <edge id=":2261290592_0" function="internal">
        <lane id=":2261290592_0_0" index="0" allow="bicycle" speed="5.56" length="10.85" width="2.00" shape="446.24,4881.44 445.46,4884.44,0.03 444.99,4886.72,0.06 444.60,4889.01,0.08 444.06,4892.07,0.11"/>
    </edge>
    <edge id=":2261290592_1" function="internal">
        <lane id=":2261290592_1_0" index="0" allow="bicycle" speed="5.56" length="11.37" width="2.00" shape="446.24,4881.44 445.10,4884.36 443.66,4886.37 441.87,4888.18 439.66,4890.53"/>
    </edge>
    <edge id=":2261290592_2" function="internal">
        <lane id=":2261290592_2_0" index="0" allow="bicycle" speed="5.56" length="10.54" width="2.00" shape="438.14,4889.23 440.28,4887.00 441.94,4885.44 443.23,4883.70 444.31,4880.90"/>
    </edge>
    <edge id=":2261290592_3" function="internal">
        <lane id=":2261290592_3_0" index="0" allow="bicycle" speed="5.56" length="14.31" width="2.00" shape="438.14,4889.23 441.62,4885.77,0.04 443.76,4885.09,0.06 444.58,4887.19,0.07 444.06,4892.07,0.11"/>
    </edge>
    <edge id=":2261290592_4" function="internal">
        <lane id=":2261290592_4_0" index="0" allow="bicycle" speed="4.06" length="5.89" width="2.00" shape="442.10,4891.70,0.11 442.31,4889.69,0.07 441.97,4888.83,0.05 441.09,4889.11,0.04 439.66,4890.53"/>
    </edge>
    <edge id=":2261290592_5" function="internal">
        <lane id=":2261290592_5_0" index="0" allow="bicycle" speed="5.56" length="11.03" width="2.00" shape="442.10,4891.70,0.11 442.64,4888.62,0.08 443.04,4886.26,0.05 443.53,4883.93,0.03 444.31,4880.90"/>
    </edge>
    <edge id=":2262029235_0" function="internal">
        <lane id=":2262029235_0_0" index="0" allow="bicycle" speed="5.56" length="6.07" width="2.00" shape="513.40,4780.84 512.33,4780.73 511.06,4781.05 509.60,4781.80 507.94,4783.00"/>
    </edge>
    <edge id=":2262029235_1" function="internal">
        <lane id=":2262029235_1_0" index="0" allow="bicycle" speed="5.56" length="7.68" width="2.00" shape="513.40,4780.84 506.17,4778.27"/>
    </edge>
    <edge id=":2262029235_2" function="internal">
        <lane id=":2262029235_2_0" index="0" allow="bicycle" speed="3.99" length="4.44" width="2.00" shape="506.69,4781.44 507.62,4780.47 507.84,4779.62 507.35,4778.88 506.17,4778.27"/>
    </edge>
    <edge id=":2262029235_3" function="internal">
        <lane id=":2262029235_3_0" index="0" allow="bicycle" speed="5.56" length="8.07" width="2.00" shape="506.69,4781.44 508.79,4779.96 510.72,4779.06 512.47,4778.72 514.05,4778.95"/>
    </edge>
    <edge id=":2262029238_0" function="internal">
        <lane id=":2262029238_0_0" index="0" allow="bicycle" speed="5.56" length="14.34" width="2.00" shape="493.67,4807.77 492.42,4811.19 491.49,4814.58 490.69,4818.02 489.83,4821.57"/>
    </edge>
    <edge id=":2262029238_1" function="internal">
        <lane id=":2262029238_1_0" index="0" allow="bicycle" speed="5.56" length="14.69" width="2.00" shape="493.67,4807.77 491.99,4811.05 489.98,4814.08 487.81,4817.02 485.63,4820.03"/>
    </edge>
    <edge id=":2262029238_2" function="internal">
        <lane id=":2262029238_2_0" index="0" allow="bicycle" speed="5.56" length="14.28" width="2.00" shape="483.98,4818.89 486.14,4815.94 488.24,4813.12 490.18,4810.21 491.82,4806.99"/>
    </edge>
    <edge id=":2262029238_3" function="internal">
        <lane id=":2262029238_3_0" index="0" allow="bicycle" speed="5.56" length="19.53" width="2.00" shape="483.98,4818.89 488.28,4813.38 490.69,4811.99 491.20,4814.72 489.83,4821.57"/>
    </edge>
    <edge id=":2262029238_4" function="internal">
        <lane id=":2262029238_4_0" index="0" allow="bicycle" speed="4.38" length="7.57" width="2.00" shape="487.89,4821.06 488.43,4818.41 488.23,4817.35 487.29,4817.89 485.63,4820.03"/>
    </edge>
    <edge id=":2262029238_5" function="internal">
        <lane id=":2262029238_5_0" index="0" allow="bicycle" speed="5.56" length="14.63" width="2.00" shape="487.89,4821.06 488.77,4817.47 489.60,4813.94 490.57,4810.45 491.82,4806.99"/>
    </edge>
    <edge id=":2262029240_0" function="internal">
        <lane id=":2262029240_0_0" index="0" allow="bicycle" speed="5.56" length="15.41" width="2.00" shape="418.95,4914.72 415.16,4918.60,-0.06 413.03,4919.42,-0.08 412.58,4917.19,-0.10 413.80,4911.90,-0.16"/>
    </edge>
    <edge id=":2262029240_1" function="internal">
        <lane id=":2262029240_1_0" index="0" allow="bicycle" speed="3.77" length="5.14" width="2.00" shape="415.72,4912.48,-0.15 415.31,4914.24,-0.10 415.46,4914.99,-0.07 416.17,4914.71,-0.05 417.43,4913.42"/>
    </edge>
    <edge id=":2262036588_0" function="internal">
        <lane id=":2262036588_0_0" index="0" allow="bicycle" speed="5.56" length="0.50" width="2.00" shape="502.36,4787.48 502.25,4787.58 502.18,4787.65 502.12,4787.74 502.06,4787.87"/>
    </edge>
    <edge id=":2262036588_1" function="internal">
        <lane id=":2262036588_1_0" index="0" allow="bicycle" speed="5.56" length="1.50" width="2.00" shape="500.22,4787.10 500.40,4786.69 500.56,4786.43 500.77,4786.21 501.11,4785.92"/>
    </edge>
    <edge id=":2262055147_0" function="internal">
        <lane id=":2262055147_0_0" index="0" disallow="tram rail_urban rail rail_electric rail_fast ship cable_car subway" speed="8.33" length="0.31" shape="871.15,4776.37 870.85,4776.39"/>
    </edge>
    <edge id=":2262055147_1" function="internal">
        <lane id=":2262055147_1_0" index="0" disallow="tram rail_urban rail rail_electric rail_fast ship cable_car subway" speed="8.33" length="0.29" shape="870.63,4773.19 870.92,4773.17"/>
    </edge>
    <edge id=":2262055148_0" function="internal">
        <lane id=":2262055148_0_0" index="0" disallow="tram rail_urban rail rail_electric rail_fast ship cable_car subway" speed="8.33" length="0.31" shape="685.13,4790.06 684.82,4790.08"/>
    </edge>
    <edge id=":2262055148_1" function="internal">
        <lane id=":2262055148_1_0" index="0" disallow="tram rail_urban rail rail_electric rail_fast ship cable_car subway" speed="8.33" length="0.23" shape="684.65,4786.89 684.88,4786.87"/>
    </edge>
    <edge id=":2290021790_0" function="internal">
        <lane id=":2290021790_0_0" index="0" allow="bicycle" speed="5.56" length="8.60" width="2.00" shape="452.32,4868.13 450.78,4870.17 449.65,4871.55 448.77,4873.05 447.94,4875.43"/>
    </edge>
    <edge id=":2290021790_1" function="internal">
        <lane id=":2290021790_1_0" index="0" allow="bicycle" speed="5.56" length="11.76" width="2.00" shape="452.32,4868.13 449.82,4871.05 447.91,4871.74 446.60,4870.19 445.89,4866.41"/>
    </edge>
    <edge id=":2290021790_2" function="internal">
        <lane id=":2290021790_2_0" index="0" allow="bicycle" speed="3.95" length="5.11" width="2.00" shape="447.88,4866.24 448.19,4867.89 448.76,4868.56 449.59,4868.26 450.68,4866.99"/>
    </edge>
    <edge id=":2290021790_3" function="internal">
        <lane id=":2290021790_3_0" index="0" allow="bicycle" speed="5.56" length="9.29" width="2.00" shape="447.88,4866.24 448.23,4868.98 448.52,4870.89 448.51,4872.77 447.94,4875.43"/>
    </edge>
    <edge id=":2290021790_4" function="internal">
        <lane id=":2290021790_4_0" index="0" allow="bicycle" speed="5.56" length="8.57" width="2.00" shape="446.01,4874.88 446.53,4872.43 446.51,4870.70 446.22,4868.94 445.89,4866.41"/>
    </edge>